File E:\luanvanchon\LUANVAN-NGHIA\sapkhung_nghia\them.$2k was saved on 10/15/07 at 15:56:01
 
TABLE:  "ACTIVE DEGREES OF FREEDOM"
   UX=Yes   UY=Yes   UZ=Yes   RX=Yes   RY=Yes   RZ=Yes
 
TABLE:  "ANALYSIS CASE DEFINITIONS"
   Case=DEAD   Type=LinStatic   InitialCond=Zero
   Case=MODAL   Type=LinModal   InitialCond=Zero
 
TABLE:  "AREA SECTION PROPERTIES"
   Section=ASEC1   Material=CONC   MatAngle=0   AreaType=Shell   Type=Shell-Thin   Thickness=1   BendThick=1   Color=Cyan   F11Mod=1   F22Mod=1   F12Mod=1   M11Mod=1   M22Mod=1   M12Mod=1   V13Mod=1   V23Mod=1   MMod=1   WMod=1
 
TABLE:  "AUTO WAVE 3 - WAVE CHARACTERISTICS - GENERAL"
   WaveChar=Default   WaveType="From Theory"   KinFactor=1   SWaterDepth=45   WaveHeight=18   WavePeriod=12   WaveTheory=Linear
 
TABLE:  "CABLE SECTION DEFINITIONS"
   CableSect=CAB1   Material=STEEL   Specify=Area   Diameter=0.028660830844226   Area=0.00064516   Color=White   AMod=1   A2Mod=1   A3Mod=1   JMod=1   I2Mod=1   I3Mod=1   MMod=1   WMod=1
 
TABLE:  "CASE - MODAL 1 - GENERAL"
   Case=MODAL   ModeType=Eigen   MaxNumModes=12   MinNumModes=1   EigenShift=0   EigenCutoff=0   EigenTol=0.0000001
 
TABLE:  "CASE - STATIC 1 - LOAD ASSIGNMENTS"
   Case=DEAD   LoadType="Load case"   LoadName=DEAD   LoadSF=1
 
TABLE:  "CONNECTIVITY - FRAME"
   Frame=1   JointI=1   JointJ=2   IsCurved=No
   Frame=2   JointI=2   JointJ=3   IsCurved=No
   Frame=3   JointI=3   JointJ=4   IsCurved=No
   Frame=4   JointI=4   JointJ=5   IsCurved=No
   Frame=5   JointI=5   JointJ=6   IsCurved=No
   Frame=6   JointI=6   JointJ=7   IsCurved=No
   Frame=7   JointI=7   JointJ=8   IsCurved=No
   Frame=8   JointI=8   JointJ=9   IsCurved=No
   Frame=9   JointI=9   JointJ=10   IsCurved=No
   Frame=10   JointI=10   JointJ=11   IsCurved=No
   Frame=11   JointI=11   JointJ=12   IsCurved=No
   Frame=12   JointI=13   JointJ=14   IsCurved=No
   Frame=13   JointI=14   JointJ=15   IsCurved=No
   Frame=14   JointI=15   JointJ=16   IsCurved=No
   Frame=15   JointI=16   JointJ=17   IsCurved=No
   Frame=16   JointI=17   JointJ=18   IsCurved=No
   Frame=17   JointI=18   JointJ=19   IsCurved=No
   Frame=18   JointI=19   JointJ=20   IsCurved=No
   Frame=19   JointI=20   JointJ=21   IsCurved=No
   Frame=20   JointI=21   JointJ=22   IsCurved=No
# ... 1413 like lines cut
 
TABLE:  "CONNECTIVITY - LINK"
   Link=1   JointI=576   JointJ=576
 
TABLE:  "COORDINATE SYSTEMS"
   Name=GLOBAL   Type=Cartesian   X=0   Y=0   Z=0   AboutZ=0   AboutY=0   AboutX=0
 
TABLE:  "DATABASE FORMAT TYPES"
   UnitsCurr=Yes   OverrideE=No
 
TABLE:  "FRAME AUTO SUBDIVISION ASSIGNMENTS"
   Frame=1   AutoDivide=Yes   AtJoints=Yes   AtFrames=No   NumSegments=0   MaxLength=0   MaxDegrees=0
   Frame=2   AutoDivide=Yes   AtJoints=Yes   AtFrames=No   NumSegments=0   MaxLength=0   MaxDegrees=0
   Frame=3   AutoDivide=Yes   AtJoints=Yes   AtFrames=No   NumSegments=0   MaxLength=0   MaxDegrees=0
   Frame=4   AutoDivide=Yes   AtJoints=Yes   AtFrames=No   NumSegments=0   MaxLength=0   MaxDegrees=0
   Frame=5   AutoDivide=Yes   AtJoints=Yes   AtFrames=No   NumSegments=0   MaxLength=0   MaxDegrees=0
   Frame=6   AutoDivide=Yes   AtJoints=Yes   AtFrames=No   NumSegments=0   MaxLength=0   MaxDegrees=0
   Frame=7   AutoDivide=Yes   AtJoints=Yes   AtFrames=No   NumSegments=0   MaxLength=0   MaxDegrees=0
   Frame=8   AutoDivide=Yes   AtJoints=Yes   AtFrames=No   NumSegments=0   MaxLength=0   MaxDegrees=0
   Frame=9   AutoDivide=Yes   AtJoints=Yes   AtFrames=No   NumSegments=0   MaxLength=0   MaxDegrees=0
   Frame=10   AutoDivide=Yes   AtJoints=Yes   AtFrames=No   NumSegments=0   MaxLength=0   MaxDegrees=0
   Frame=11   AutoDivide=Yes   AtJoints=Yes   AtFrames=No   NumSegments=0   MaxLength=0   MaxDegrees=0
   Frame=12   AutoDivide=Yes   AtJoints=Yes   AtFrames=No   NumSegments=0   MaxLength=0   MaxDegrees=0
   Frame=13   AutoDivide=Yes   AtJoints=Yes   AtFrames=No   NumSegments=0   MaxLength=0   MaxDegrees=0
   Frame=14   AutoDivide=Yes   AtJoints=Yes   AtFrames=No   NumSegments=0   MaxLength=0   MaxDegrees=0
   Frame=15   AutoDivide=Yes   AtJoints=Yes   AtFrames=No   NumSegments=0   MaxLength=0   MaxDegrees=0
   Frame=16   AutoDivide=Yes   AtJoints=Yes   AtFrames=No   NumSegments=0   MaxLength=0   MaxDegrees=0
   Frame=17   AutoDivide=Yes   AtJoints=Yes   AtFrames=No   NumSegments=0   MaxLength=0   MaxDegrees=0
   Frame=18   AutoDivide=Yes   AtJoints=Yes   AtFrames=No   NumSegments=0   MaxLength=0   MaxDegrees=0
   Frame=19   AutoDivide=Yes   AtJoints=Yes   AtFrames=No   NumSegments=0   MaxLength=0   MaxDegrees=0
   Frame=20   AutoDivide=Yes   AtJoints=Yes   AtFrames=No   NumSegments=0   MaxLength=0   MaxDegrees=0
# ... 1413 like lines cut
 
TABLE:  "FRAME DESIGN PROCEDURES"
   Frame=1   DesignProc="From Material"
   Frame=2   DesignProc="From Material"
   Frame=3   DesignProc="From Material"
   Frame=4   DesignProc="From Material"
   Frame=5   DesignProc="From Material"
   Frame=6   DesignProc="From Material"
   Frame=7   DesignProc="From Material"
   Frame=8   DesignProc="From Material"
   Frame=9   DesignProc="From Material"
   Frame=10   DesignProc="From Material"
   Frame=11   DesignProc="From Material"
   Frame=12   DesignProc="From Material"
   Frame=13   DesignProc="From Material"
   Frame=14   DesignProc="From Material"
   Frame=15   DesignProc="From Material"
   Frame=16   DesignProc="From Material"
   Frame=17   DesignProc="From Material"
   Frame=18   DesignProc="From Material"
   Frame=19   DesignProc="From Material"
   Frame=20   DesignProc="From Material"
# ... 1413 like lines cut
 
TABLE:  "FRAME OUTPUT STATION ASSIGNMENTS"
   Frame=1   StationType=MinNumSta   MinNumSta=3
   Frame=2   StationType=MinNumSta   MinNumSta=3
   Frame=3   StationType=MinNumSta   MinNumSta=3
   Frame=4   StationType=MinNumSta   MinNumSta=3
   Frame=5   StationType=MinNumSta   MinNumSta=3
   Frame=6   StationType=MinNumSta   MinNumSta=3
   Frame=7   StationType=MinNumSta   MinNumSta=3
   Frame=8   StationType=MinNumSta   MinNumSta=3
   Frame=9   StationType=MinNumSta   MinNumSta=3
   Frame=10   StationType=MinNumSta   MinNumSta=3
   Frame=11   StationType=MinNumSta   MinNumSta=3
   Frame=12   StationType=MinNumSta   MinNumSta=3
   Frame=13   StationType=MinNumSta   MinNumSta=3
   Frame=14   StationType=MinNumSta   MinNumSta=3
   Frame=15   StationType=MinNumSta   MinNumSta=3
   Frame=16   StationType=MinNumSta   MinNumSta=3
   Frame=17   StationType=MinNumSta   MinNumSta=3
   Frame=18   StationType=MinNumSta   MinNumSta=3
   Frame=19   StationType=MinNumSta   MinNumSta=3
   Frame=20   StationType=MinNumSta   MinNumSta=3
# ... 508 like lines cut
   Frame=529   StationType=MaxStaSpcg   MaxStaSpcg=0.5
   Frame=530   StationType=MaxStaSpcg   MaxStaSpcg=0.5
   Frame=531   StationType=MaxStaSpcg   MaxStaSpcg=0.5
   Frame=532   StationType=MaxStaSpcg   MaxStaSpcg=0.5
   Frame=533   StationType=MaxStaSpcg   MaxStaSpcg=0.5
   Frame=534   StationType=MaxStaSpcg   MaxStaSpcg=0.5
   Frame=535   StationType=MaxStaSpcg   MaxStaSpcg=0.5
   Frame=536   StationType=MaxStaSpcg   MaxStaSpcg=0.5
   Frame=537   StationType=MaxStaSpcg   MaxStaSpcg=0.5
   Frame=538   StationType=MaxStaSpcg   MaxStaSpcg=0.5
   Frame=539   StationType=MaxStaSpcg   MaxStaSpcg=0.5
   Frame=540   StationType=MaxStaSpcg   MaxStaSpcg=0.5
   Frame=541   StationType=MaxStaSpcg   MaxStaSpcg=0.5
   Frame=542   StationType=MaxStaSpcg   MaxStaSpcg=0.5
   Frame=543   StationType=MaxStaSpcg   MaxStaSpcg=0.5
   Frame=544   StationType=MaxStaSpcg   MaxStaSpcg=0.5
   Frame=545   StationType=MaxStaSpcg   MaxStaSpcg=0.5
   Frame=546   StationType=MaxStaSpcg   MaxStaSpcg=0.5
   Frame=547   StationType=MaxStaSpcg   MaxStaSpcg=0.5
   Frame=548   StationType=MaxStaSpcg   MaxStaSpcg=0.5
# ... 882 like lines cut
   Frame=1437   StationType=MinNumSta   MinNumSta=3
   Frame=1438   StationType=MaxStaSpcg   MaxStaSpcg=0.5
   Frame=1439   StationType=MaxStaSpcg   MaxStaSpcg=0.5
 
TABLE:  "FRAME SECTION ASSIGNMENTS"
   Frame=1   AutoSelect=N.A.   AnalSect=W18X35   MatProp=Default
   Frame=2   AutoSelect=N.A.   AnalSect=W18X35   MatProp=Default
   Frame=3   AutoSelect=N.A.   AnalSect=W18X35   MatProp=Default
   Frame=4   AutoSelect=N.A.   AnalSect=W18X35   MatProp=Default
   Frame=5   AutoSelect=N.A.   AnalSect=W18X35   MatProp=Default
   Frame=6   AutoSelect=N.A.   AnalSect=W18X35   MatProp=Default
   Frame=7   AutoSelect=N.A.   AnalSect=W18X35   MatProp=Default
   Frame=8   AutoSelect=N.A.   AnalSect=W18X35   MatProp=Default
   Frame=9   AutoSelect=N.A.   AnalSect=W18X35   MatProp=Default
   Frame=10   AutoSelect=N.A.   AnalSect=W18X35   MatProp=Default
   Frame=11   AutoSelect=N.A.   AnalSect=W18X35   MatProp=Default
   Frame=12   AutoSelect=N.A.   AnalSect=W18X35   MatProp=Default
   Frame=13   AutoSelect=N.A.   AnalSect=W18X35   MatProp=Default
   Frame=14   AutoSelect=N.A.   AnalSect=W18X35   MatProp=Default
   Frame=15   AutoSelect=N.A.   AnalSect=W18X35   MatProp=Default
   Frame=16   AutoSelect=N.A.   AnalSect=W18X35   MatProp=Default
   Frame=17   AutoSelect=N.A.   AnalSect=W18X35   MatProp=Default
   Frame=18   AutoSelect=N.A.   AnalSect=W18X35   MatProp=Default
   Frame=19   AutoSelect=N.A.   AnalSect=W18X35   MatProp=Default
   Frame=20   AutoSelect=N.A.   AnalSect=W18X35   MatProp=Default
# ... 1413 like lines cut
 
TABLE:  "FRAME SECTION PROPERTIES 01 - GENERAL"
   SectionName=W10X112   Material=STEEL   Shape="I/Wide Flange"   t3=0.289559990310669   t2=0.264159990310669   tf=0.03175   tw=1.91769998788834E-02   t2b=0.264159990310669   tfb=0.03175   Area=0.021225764984436 _
        TorsConst=6.28509468533969E-06   I33=2.980217007296E-04   I22=9.82306164416E-05   AS2=5.55289234642029E-03   AS3=0.013978466256485   S33=2.05844530116093E-03   S22=7.43720624202587E-04   Z33=0.002408898408   Z22=1.13398477879065E-03 _
        R33=0.118492883678924   R22=6.80286353390317E-02   Color=White   FromFile=Yes   AMod=1   A2Mod=1   A3Mod=1   JMod=1   I2Mod=1   I3Mod=1   MMod=1   WMod=1   SectInFile=W10X112   FileName="C:\Program Files\Computers and Structures\SAP2000 9\Sections8.pro"
   SectionName=W10X12   Material=STEEL   Shape="I/Wide Flange"   t3=0.250697997093201   t2=0.100584000968933   tf=5.33399983346462E-03   tw=4.82599993944168E-03   t2b=0.100584000968933   tfb=5.33399983346462E-03   Area=2.2838663753891E-03 _
        TorsConst=2.27678582931017E-08   I33=2.23932503797206E-05   I22=9.07384535594445E-07   AS2=1.20986858011723E-03   AS3=8.94191783995628E-04   S33=1.78647222070909E-04   S22=1.80423233685983E-05   Z33=2.06477012651169E-04 _
        Z22=2.85134915162792E-05   R33=9.90200685614437E-02   R22=1.99324343057159E-02   Color=Cyan   FromFile=Yes   AMod=1   A2Mod=1   A3Mod=1   JMod=1   I2Mod=1   I3Mod=1   MMod=1   WMod=1   SectInFile=W10X12   FileName="C:\Program Files\Computers and Structures\SAP2000 9\Sections8.pro"
   SectionName=W10X49   Material=STEEL   Shape="I/Wide Flange"   t3=0.253491988372803   t2=0.254   tf=1.42240000605583E-02   tw=8.63600009083748E-03   t2b=0.254   tfb=1.42240000605583E-02   Area=9.29030375389099E-03 _
        TorsConst=5.78561675629762E-07   I33=1.132149477632E-04   I22=3.88760157861587E-05   AS2=2.18915686080933E-03   AS3=6.02149312824249E-03   S33=8.93242808105622E-04   S22=3.06110360520935E-04   Z33=9.89778690604675E-04 _
        Z22=4.63753898697662E-04   R33=0.110391828856957   R22=0.064688326795965   Color=Red   FromFile=Yes   AMod=1   A2Mod=1   A3Mod=1   JMod=1   I2Mod=1   I3Mod=1   MMod=1   WMod=1   SectInFile=W10X49   FileName="C:\Program Files\Computers and Structures\SAP2000 9\Sections8.pro"
   SectionName=W10X68   Material=STEEL   Shape="I/Wide Flange"   t3=0.264159990310669   t2=0.256540009689331   tf=1.95579995155334E-02   tw=1.19379999697208E-02   t2b=0.256540009689331   tfb=1.95579995155334E-02   Area=0.0129032 _
        TorsConst=1.48178385131905E-06   I33=1.639951816864E-04   I22=5.57750110304E-05   AS2=3.15354208738327E-03   AS3=8.36234912097931E-03   S33=1.24163527938906E-03   S22=4.34825048131426E-04   Z33=1.39781660920935E-03 _
        Z22=6.57121241395325E-04   R33=0.112737092387554   R22=6.57462698561675E-02   Color=Magenta   FromFile=Yes   AMod=1   A2Mod=1   A3Mod=1   JMod=1   I2Mod=1   I3Mod=1   MMod=1   WMod=1   SectInFile=W10X68   FileName="C:\Program Files\Computers and Structures\SAP2000 9\Sections8.pro"
   SectionName=W10X88   Material=STEEL   Shape="I/Wide Flange"   t3=0.274320004844666   t2=0.261620004844666   tf=2.51460002422333E-02   tw=1.53670004844666E-02   t2b=0.261620004844666   tfb=2.51460002422333E-02   Area=0.016709643753891 _
        TorsConst=3.13422272209683E-06   I33=2.222675812704E-04   I22=7.45054251824E-05   AS2=4.21547538831711E-03   AS3=1.09644947414398E-02   S33=1.62049852249208E-03   S22=5.6956978673429E-04   Z33=0.001851738232 _
        Z22=8.70153073395325E-04   R33=0.115333233007968   R22=6.67744551823519E-02   Color=Yellow   FromFile=Yes   AMod=1   A2Mod=1   A3Mod=1   JMod=1   I2Mod=1   I3Mod=1   MMod=1   WMod=1   SectInFile=W10X88   FileName="C:\Program Files\Computers and Structures\SAP2000 9\Sections8.pro"
   SectionName=W12X136   Material=STEEL   Shape="I/Wide Flange"   t3=0.340359990310669   t2=0.314959990310669   tf=0.03175   tw=2.00660005450249E-02   t2b=0.314959990310669   tfb=0.03175   Area=0.025741884984436   TorsConst=7.7002813736E-06 _
        I33=0.000516126967744   I22=1.656601073888E-04   AS2=6.82966404548645E-03   AS3=0.016666633743515   S33=3.03282984156215E-03   S22=1.05194381816812E-03   Z33=0.003506831696   Z22=0.001605932272   R33=0.141598320774879 _
        R22=8.02211339382189E-02   Color=Magenta   FromFile=Yes   AMod=1   A2Mod=1   A3Mod=1   JMod=1   I2Mod=1   I3Mod=1   MMod=1   WMod=1   SectInFile=W12X136   FileName="C:\Program Files\Computers and Structures\SAP2000 9\Sections8.pro"
   SectionName=W12X14   Material=STEEL   Shape="I/Wide Flange"   t3=0.302259990310669   t2=0.1008380007267   tf=5.7149998486042E-03   tw=5.0800000756979E-03   t2b=0.1008380007267   tfb=5.7149998486042E-03   Area=2.6838655015564E-03 _
        TorsConst=2.93026922034603E-08   I33=3.68781036730412E-05   I22=9.82306120751586E-07   AS2=1.5354808738327E-03   AS3=9.6048193769455E-04   S33=2.44015780157587E-04   S22=1.9482855940667E-05   Z33=2.85134907348831E-04 _
        Z22=3.11354212093019E-05   R33=0.117220593647421   R22=1.91312369679788E-02   Color=Gray8Dark   FromFile=Yes   AMod=1   A2Mod=1   A3Mod=1   JMod=1   I2Mod=1   I3Mod=1   MMod=1   WMod=1   SectInFile=W12X14   FileName="C:\Program Files\Computers and Structures\SAP2000 9\Sections8.pro"
   SectionName=W12X16   Material=STEEL   Shape="I/Wide Flange"   t3=0.3048   t2=0.101346000242233   tf=6.73099963665008E-03   tw=5.58799996972084E-03   t2b=0.101346000242233   tfb=6.73099963665008E-03   Area=3.0387036246109E-03 _
        TorsConst=4.28718368864187E-08   I33=4.28718368368E-05   I22=1.17377259240555E-06   AS2=1.70322246767998E-03   AS3=1.13693317554474E-03   S33=2.81311265333333E-04   S22=2.31636688098208E-05   Z33=3.29379992651169E-04 _
        Z22=3.70347644837208E-05   R33=0.118779604164867   R22=0.019653857836433   Color=Blue   FromFile=Yes   AMod=1   A2Mod=1   A3Mod=1   JMod=1   I2Mod=1   I3Mod=1   MMod=1   WMod=1   SectInFile=W12X16   FileName="C:\Program Files\Computers and Structures\SAP2000 9\Sections8.pro"
   SectionName=W12X19   Material=STEEL   Shape="I/Wide Flange"   t3=0.309879995155334   t2=0.101854005813599   tf=8.8899998486042E-03   tw=5.96899998486042E-03   t2b=0.101854005813599   tfb=8.8899998486042E-03   Area=3.59354131074905E-03 _
        TorsConst=7.49216595851191E-08   I33=0.000054110085328   I22=1.56503015628651E-06   AS2=1.84967378644943E-03   AS3=1.5091367502594E-03   S33=3.49232516935313E-04   S22=3.07308513550394E-05   Z33=4.04760493302338E-04 _
        Z22=4.88334510325584E-05   R33=0.122709387541779   R22=2.08689228851276E-02   Color=Green   FromFile=Yes   AMod=1   A2Mod=1   A3Mod=1   JMod=1   I2Mod=1   I3Mod=1   MMod=1   WMod=1   SectInFile=W12X19   FileName="C:\Program Files\Computers and Structures\SAP2000 9\Sections8.pro"
   SectionName=W12X190   Material=STEEL   Shape="I/Wide Flange"   t3=0.365759990310669   t2=0.322579995155334   tf=4.41960002422333E-02   tw=2.69239985466003E-02   t2b=0.322579995155334   tfb=4.41960002422333E-02   Area=0.035999927507782 _
        TorsConst=2.03120932517206E-05   I33=0.000786677394384   I22=2.451603096784E-04   AS2=9.84772220062256E-03   AS3=2.37612439813232E-02   S33=4.3016044139536E-03   S22=1.51999698282806E-03   Z33=0.005096376904   Z22=0.002343350152 _
        R33=0.14782487560342   R22=8.25228593502064E-02   Color=Yellow   FromFile=Yes   AMod=1   A2Mod=1   A3Mod=1   JMod=1   I2Mod=1   I3Mod=1   MMod=1   WMod=1   SectInFile=W12X190   FileName="C:\Program Files\Computers and Structures\SAP2000 9\Sections8.pro"
   SectionName=W12X65   Material=STEEL   Shape="I/Wide Flange"   t3=0.307340009689331   t2=0.3048   tf=1.53670004844666E-02   tw=9.90599963665009E-03   t2b=0.3048   tfb=1.53670004844666E-02   Area=0.012322556246109 _
        TorsConst=9.07384535594445E-07   I33=2.218513498448E-04   I22=7.24242680544E-05   AS2=3.04450995140076E-03   AS3=7.80643624610901E-03   S33=1.44368674985762E-03   S22=0.000475224856   Z33=1.58626784520935E-03 _
        Z22=7.22669497395325E-04   R33=0.134177789598644   R22=7.66640313615533E-02   Color=Cyan   FromFile=Yes   AMod=1   A2Mod=1   A3Mod=1   JMod=1   I2Mod=1   I3Mod=1   MMod=1   WMod=1   SectInFile=W12X65   FileName="C:\Program Files\Computers and Structures\SAP2000 9\Sections8.pro"
   SectionName=W12X96   Material=STEEL   Shape="I/Wide Flange"   t3=0.322579995155334   t2=0.309879995155334   tf=2.28599993944168E-02   tw=1.39700003027916E-02   t2b=0.309879995155334   tfb=2.28599993944168E-02   Area=0.018193512492218 _
        TorsConst=2.85118522566508E-06   I33=3.467207775248E-04   I22=0.000112382484912   AS2=4.50644268613815E-03   AS3=0.011806427507782   S33=2.14967315228485E-03   S22=7.2532907363488E-04   Z33=0.002408898408   Z22=0.00110612682 _
        R33=0.138048488945055   R22=7.85942979017518E-02   Color=Red   FromFile=Yes   AMod=1   A2Mod=1   A3Mod=1   JMod=1   I2Mod=1   I3Mod=1   MMod=1   WMod=1   SectInFile=W12X96   FileName="C:\Program Files\Computers and Structures\SAP2000 9\Sections8.pro"
   SectionName=W14X109   Material=STEEL   Shape="I/Wide Flange"   t3=0.363220004844665   t2=0.370840009689331   tf=2.18440003633499E-02   tw=1.33349993944168E-02   t2b=0.370840009689331   tfb=2.18440003633499E-02   Area=0.02064512 _
        TorsConst=2.96356770263809E-06   I33=0.000516126967744   I22=1.860554472432E-04   AS2=4.84353881074905E-03   AS3=1.35010480041504E-02   S33=2.84195232013571E-03   S22=1.00342704337144E-03   Z33=0.003146316288 _
        Z22=1.51908078279065E-03   R33=0.158113724894457   R22=9.49319690620604E-02   Color=Blue   FromFile=Yes   AMod=1   A2Mod=1   A3Mod=1   JMod=1   I2Mod=1   I3Mod=1   MMod=1   WMod=1   SectInFile=W14X109   FileName="C:\Program Files\Computers and Structures\SAP2000 9\Sections8.pro"
   SectionName=W14X132   Material=STEEL   Shape="I/Wide Flange"   t3=0.373379995155334   t2=0.373379995155334   tf=2.61619992733002E-02   tw=1.63829995155334E-02   t2b=0.373379995155334   tfb=2.61619992733002E-02   Area=0.025032207507782 _
        TorsConst=5.11964661426984E-06   I33=0.000636834081168   I22=2.280948212288E-04   AS2=6.11708432834625E-03   AS3=1.62806129937744E-02   S33=3.41118479528108E-03   S22=1.22178383517257E-03   Z33=0.003834572976   Z22=0.001851738232 _
        R33=0.159501059962353   R22=9.54570782468292E-02   Color=Green   FromFile=Yes   AMod=1   A2Mod=1   A3Mod=1   JMod=1   I2Mod=1   I3Mod=1   MMod=1   WMod=1   SectInFile=W14X132   FileName="C:\Program Files\Computers and Structures\SAP2000 9\Sections8.pro"
   SectionName=W14X159   Material=STEEL   Shape="I/Wide Flange"   t3=0.381   t2=0.396240009689331   tf=3.02260014533997E-02   tw=1.89230001211166E-02   t2b=0.396240009689331   tfb=3.02260014533997E-02   Area=0.030128972492218 _
        TorsConst=8.19975940187938E-06   I33=0.00079083970864   I22=3.113411063488E-04   AS2=7.2096631230545E-03   AS3=1.99612507445526E-02   S33=4.15138954666667E-03   S22=1.57147738105955E-03   Z33=0.004703087368   Z22=0.002392511344 _
        R33=0.162013824189682   R22=0.101654374340774   Color=Cyan   FromFile=Yes   AMod=1   A2Mod=1   A3Mod=1   JMod=1   I2Mod=1   I3Mod=1   MMod=1   WMod=1   SectInFile=W14X159   FileName="C:\Program Files\Computers and Structures\SAP2000 9\Sections8.pro"
   SectionName=W14X211   Material=STEEL   Shape="I/Wide Flange"   t3=0.398779995155334   t2=0.401320004844666   tf=3.96239985466003E-02   tw=2.48920004844666E-02   t2b=0.401320004844666   tfb=3.96239985466003E-02   Area=0.03999992 _
        TorsConst=1.85639209466412E-05   I33=0.001107175592096   I22=0.000428718368368   AS2=9.92643155326843E-03   AS3=2.65031739813232E-02   S33=5.55281411077167E-03   S22=2.13654122990425E-03   Z33=0.00639095496   Z22=0.003244638672 _
        R33=0.166371407282893   R22=0.103527680574624   Color=Red   FromFile=Yes   AMod=1   A2Mod=1   A3Mod=1   JMod=1   I2Mod=1   I3Mod=1   MMod=1   WMod=1   SectInFile=W14X211   FileName="C:\Program Files\Computers and Structures\SAP2000 9\Sections8.pro"
   SectionName=W14X22   Material=STEEL   Shape="I/Wide Flange"   t3=0.347979995155334   t2=0.127   tf=8.50900021195412E-03   tw=5.84200010597706E-03   t2b=0.127   tfb=8.50900021195412E-03   Area=4.18708825233459E-03 _
        TorsConst=8.65761383110715E-08   I33=8.28300536944E-05   I22=2.9136199792E-06   AS2=2.03289917476654E-03   AS3=1.80107171793938E-03   S33=4.76062157868734E-04   S22=0.0000458837792   Z33=5.44050537302338E-04 _
        Z22=7.19392087720909E-05   R33=0.140649409795342   R22=2.63791256108346E-02   Color=White   FromFile=Yes   AMod=1   A2Mod=1   A3Mod=1   JMod=1   I2Mod=1   I3Mod=1   MMod=1   WMod=1   SectInFile=W14X22   FileName="C:\Program Files\Computers and Structures\SAP2000 9\Sections8.pro"
   SectionName=W14X257   Material=STEEL   Shape="I/Wide Flange"   t3=0.416559990310669   t2=0.4064   tf=4.80059996366501E-02   tw=0.029971998667717   t2b=0.4064   tfb=4.80059996366501E-02   Area=0.048774095015564 _
        TorsConst=3.29239051298412E-05   I33=0.00141518684704   I22=0.000536938539024   AS2=1.24851358573151E-02   AS3=0.032516064984436   S33=6.79463645072854E-03   S22=0.00264241407   Z33=0.007980500168   Z22=0.004031217744 _
        R33=0.170338289473511   R22=0.104922270094948   Color=Magenta   FromFile=Yes   AMod=1   A2Mod=1   A3Mod=1   JMod=1   I2Mod=1   I3Mod=1   MMod=1   WMod=1   SectInFile=W14X257   FileName="C:\Program Files\Computers and Structures\SAP2000 9\Sections8.pro"
   SectionName=W14X311   Material=STEEL   Shape="I/Wide Flange"   t3=0.434340009689331   t2=0.411480019378662   tf=5.74039997577667E-02   tw=3.58139991521835E-02   t2b=0.411480019378662   tfb=5.74039997577667E-02   Area=0.058967624984436 _
        TorsConst=5.66074738816E-05   I33=0.001802282072848   I22=0.000670132595216   AS2=1.55554527993774E-02   AS3=3.93676634953308E-02   S33=0.008298945676854   S22=3.25718170339306E-03   Z33=0.009881399592   Z22=0.004981667456 _
        R33=0.174825413174117   R22=0.10660401289445   Color=Yellow   FromFile=Yes   AMod=1   A2Mod=1   A3Mod=1   JMod=1   I2Mod=1   I3Mod=1   MMod=1   WMod=1   SectInFile=W14X311   FileName="C:\Program Files\Computers and Structures\SAP2000 9\Sections8.pro"
   SectionName=W14X370   Material=STEEL   Shape="I/Wide Flange"   t3=0.454659990310669   t2=0.4191   tf=6.75640021800995E-02   tw=4.21639991521835E-02   t2b=0.4191   tfb=6.75640021800995E-02   Area=0.07032244   TorsConst=9.24033764832E-05 _
        I33=0.002264298955264   I22=0.000828300536944   AS2=1.91702846928406E-02   AS3=0.047193454984436   S33=9.96040559327336E-03   S22=3.95275846787879E-03   Z33=0.012060879104   Z22=0.00606321368   R33=0.179440271425269 _
        R22=0.108529300994303   Color=White   FromFile=Yes   AMod=1   A2Mod=1   A3Mod=1   JMod=1   I2Mod=1   I3Mod=1   MMod=1   WMod=1   SectInFile=W14X370   FileName="C:\Program Files\Computers and Structures\SAP2000 9\Sections8.pro"
   SectionName=W14X426   Material=STEEL   Shape="I/Wide Flange"   t3=0.474980019378662   t2=0.424180019378662   tf=7.72159990310669E-02   tw=4.77519998788834E-02   t2b=0.424180019378662   tfb=7.72159990310669E-02   Area=0.080645 _
        TorsConst=1.377726018736E-04   I33=0.00274712740896   I22=0.000982306164416   AS2=2.26812438180542E-02   AS3=5.45891389865112E-02   S33=1.15673388221829E-02   S22=4.63155320637158E-03   Z33=0.014240358616   Z22=0.007111985776 _
        R33=0.184565565585783   R22=0.110365849790594   Color=Gray8Dark   FromFile=Yes   AMod=1   A2Mod=1   A3Mod=1   JMod=1   I2Mod=1   I3Mod=1   MMod=1   WMod=1   SectInFile=W14X426   FileName="C:\Program Files\Computers and Structures\SAP2000 9\Sections8.pro"
   SectionName=W14X90   Material=STEEL   Shape="I/Wide Flange"   t3=0.3556   t2=0.3683   tf=1.80339994549751E-02   tw=1.11759999394417E-02   t2b=0.3683   tfb=1.80339994549751E-02   Area=0.01709674   TorsConst=1.68989956411905E-06 _
        I33=4.158151941744E-04   I22=1.506757760672E-04   AS2=3.9741855015564E-03   AS3=0.011069870005188   S33=2.33866813371429E-03   S22=8.18223057655173E-04   Z33=0.002572769048   Z22=1.23886201339532E-03   R33=0.155952924682358 _
        R22=9.38782672219922E-02   Color=Gray8Dark   FromFile=Yes   AMod=1   A2Mod=1   A3Mod=1   JMod=1   I2Mod=1   I3Mod=1   MMod=1   WMod=1   SectInFile=W14X90   FileName="C:\Program Files\Computers and Structures\SAP2000 9\Sections8.pro"
   SectionName=W16X26   Material=STEEL   Shape="I/Wide Flange"   t3=0.398779995155334   t2=0.1397   tf=8.76299996972084E-03   tw=0.00635   t2b=0.1397   tfb=8.76299996972084E-03   Area=4.95482868925095E-03   TorsConst=1.09052631224742E-07 _
        I33=1.252856591056E-04   I22=3.99165943501587E-06   AS2=2.53225296923637E-03   AS3=2.04031843847275E-03   S33=6.28344754639952E-04   S22=5.71461622765336E-05   Z33=7.24308241302338E-04   Z22=8.98011110325584E-05 _
        R33=0.159014364991059   R22=2.83832693455428E-02   Color=Blue   FromFile=Yes   AMod=1   A2Mod=1   A3Mod=1   JMod=1   I2Mod=1   I3Mod=1   MMod=1   WMod=1   SectInFile=W16X26   FileName="C:\Program Files\Computers and Structures\SAP2000 9\Sections8.pro"
   SectionName=W16X31   Material=STEEL   Shape="I/Wide Flange"   t3=0.403859990310669   t2=0.140462005329132   tf=1.11759999394417E-02   tw=6.9850001513958E-03   t2b=0.140462005329132   tfb=1.11759999394417E-02   Area=5.8903108738327E-03 _
        TorsConst=1.91882685316091E-07   I33=0.0001560867846   I22=5.16126951866031E-06   AS2=2.82096206308365E-03   AS3=2.61633872699738E-03   S33=7.72974735526192E-04   S22=7.348990222041E-05   Z33=0.000884901456 _
        Z22=1.15201063358143E-04   R33=0.162784840748747   R22=2.96011893532967E-02   Color=Green   FromFile=Yes   AMod=1   A2Mod=1   A3Mod=1   JMod=1   I2Mod=1   I3Mod=1   MMod=1   WMod=1   SectInFile=W16X31   FileName="C:\Program Files\Computers and Structures\SAP2000 9\Sections8.pro"
   SectionName=W18X119   Material=STEEL   Shape="I/Wide Flange"   t3=0.4826   t2=0.287020004844666   tf=2.69239985466003E-02   tw=1.66369992733002E-02   t2b=0.287020004844666   tfb=2.69239985466003E-02   Area=0.022645115015564 _
        TorsConst=4.41205327013969E-06   I33=0.000911546822064   I22=1.053065506768E-04   AS2=8.02901600311279E-03   AS3=1.28795440020752E-02   S33=3.77764949052632E-03   S22=7.33792410977009E-04   Z33=0.004293410768 _
        Z22=1.13234609739532E-03   R33=0.200632934483572   R22=6.81930991938181E-02   Color=Red   FromFile=Yes   AMod=1   A2Mod=1   A3Mod=1   JMod=1   I2Mod=1   I3Mod=1   MMod=1   WMod=1   SectInFile=W18X119   FileName="C:\Program Files\Computers and Structures\SAP2000 9\Sections8.pro"
   SectionName=W18X35   Material=STEEL   Shape="I/Wide Flange"   t3=0.449580019378662   t2=0.1524   tf=1.07950003027916E-02   tw=7.62000030279159E-03   t2b=0.1524   tfb=1.07950003027916E-02   Area=6.6451481230545E-03 _
        TorsConst=2.10613094010039E-07   I33=0.000212278027056   I22=6.36834089106984E-06   AS2=3.42579956308365E-03   AS3=0.00274193   S33=9.44339240651205E-04   S22=8.35740274418615E-05   Z33=0.001089739756   Z22=1.32079742716286E-04 _
        R33=0.178731124716509   R22=3.09571390832532E-02   Color=Yellow   FromFile=Yes   AMod=1   A2Mod=1   A3Mod=1   JMod=1   I2Mod=1   I3Mod=1   MMod=1   WMod=1   SectInFile=W18X35   FileName="C:\Program Files\Computers and Structures\SAP2000 9\Sections8.pro"
   SectionName=W18X40   Material=STEEL   Shape="I/Wide Flange"   t3=0.454659990310669   t2=0.152907999515533   tf=1.33349993944168E-02   tw=8.00099993944168E-03   t2b=0.152907999515533   tfb=1.33349993944168E-02   Area=7.6128881230545E-03 _
        TorsConst=3.37147455728373E-07   I33=2.547336324672E-04   I22=7.95002038773969E-06   AS2=3.63773479782105E-03   AS3=3.3983802507782E-03   S33=1.12054562924325E-03   S22=1.03984362007588E-04   Z33=1.28474584260468E-03 _
        Z22=1.63051283674416E-04   R33=0.182923044303079   R22=3.23153896890719E-02   Color=White   FromFile=Yes   AMod=1   A2Mod=1   A3Mod=1   JMod=1   I2Mod=1   I3Mod=1   MMod=1   WMod=1   SectInFile=W18X40   FileName="C:\Program Files\Computers and Structures\SAP2000 9\Sections8.pro"
   SectionName=W18X55   Material=STEEL   Shape="I/Wide Flange"   t3=0.459740009689331   t2=0.191262005329132   tf=1.60019998788834E-02   tw=9.90599963665009E-03   t2b=0.191262005329132   tfb=1.60019998788834E-02   Area=0.010451592492218 _
        TorsConst=6.90944152602777E-07   I33=0.000370445968784   I22=1.86887916445588E-05   AS2=4.55418444984436E-03   AS3=5.10095745140076E-03   S33=1.61154548647758E-03   S22=1.95426076521558E-04   Z33=0.001835351168   Z22=0.000303160684 _
        R33=0.188265699582816   R22=0.042286269858324   Color=Gray8Dark   FromFile=Yes   AMod=1   A2Mod=1   A3Mod=1   JMod=1   I2Mod=1   I3Mod=1   MMod=1   WMod=1   SectInFile=W18X55   FileName="C:\Program Files\Computers and Structures\SAP2000 9\Sections8.pro"
   SectionName=W18X65   Material=STEEL   Shape="I/Wide Flange"   t3=0.467359990310669   t2=0.192786003875732   tf=0.01905   tw=1.14299996972084E-02   t2b=0.192786003875732   tfb=0.01905   Area=0.012322556246109 _
        TorsConst=1.13631179982698E-06   I33=0.000445367625392   I22=2.28094818053206E-05   AS2=5.34192462772369E-03   AS3=6.1209556230545E-03   S33=1.90588683081729E-03   S22=2.36630059721797E-04   Z33=0.002179479512   Z22=0.00036870894 _
        R33=0.190111731574731   R22=4.30236552501308E-02   Color=Blue   FromFile=Yes   AMod=1   A2Mod=1   A3Mod=1   JMod=1   I2Mod=1   I3Mod=1   MMod=1   WMod=1   SectInFile=W18X65   FileName="C:\Program Files\Computers and Structures\SAP2000 9\Sections8.pro"
   SectionName=W18X76   Material=STEEL   Shape="I/Wide Flange"   t3=0.462280019378662   t2=0.2794   tf=0.017272000181675   tw=1.07950003027916E-02   t2b=0.2794   tfb=0.017272000181675   Area=0.014387067507782 _
        TorsConst=1.17793490269206E-06   I33=0.000553587796048   I22=6.32671766912E-05   AS2=4.99031268613815E-03   AS3=8.04299437953949E-03   S33=2.39503233037007E-03   S22=4.52878859636364E-04   Z33=0.002671091432 _
        Z22=6.91534113302338E-04   R33=0.196158491487885   R22=6.63136734728455E-02   Color=Green   FromFile=Yes   AMod=1   A2Mod=1   A3Mod=1   JMod=1   I2Mod=1   I3Mod=1   MMod=1   WMod=1   SectInFile=W18X76   FileName="C:\Program Files\Computers and Structures\SAP2000 9\Sections8.pro"
   SectionName=W18X97   Material=STEEL   Shape="I/Wide Flange"   t3=0.472440009689331   t2=0.281940009689331   tf=2.20980001211166E-02   tw=1.35890006661415E-02   t2b=0.281940009689331   tfb=2.20980001211166E-02   Area=0.01838706 _
        TorsConst=2.43911620958889E-06   I33=0.0007284049948   I22=8.36625165456E-05   AS2=6.41998729782105E-03   AS3=1.03838497570038E-02   S33=3.08358724858628E-03   S22=5.93477432577147E-04   Z33=0.003457670504   Z22=9.06204626697662E-04 _
        R33=0.199035393132222   R22=6.74542496027766E-02   Color=Cyan   FromFile=Yes   AMod=1   A2Mod=1   A3Mod=1   JMod=1   I2Mod=1   I3Mod=1   MMod=1   WMod=1   SectInFile=W18X97   FileName="C:\Program Files\Computers and Structures\SAP2000 9\Sections8.pro"
   SectionName=W21X44   Material=STEEL   Shape="I/Wide Flange"   t3=0.525780019378662   t2=0.1651   tf=1.14299996972084E-02   tw=8.8899998486042E-03   t2b=0.1651   tfb=1.14299996972084E-02   Area=0.00838708   TorsConst=3.20498189773016E-07 _
        I33=3.508830917808E-04   I22=8.61599082747938E-06   AS2=4.6741841261673E-03   AS3=0.003145155   S33=1.3347144389224E-03   S22=1.04372996093027E-04   Z33=1.56332593060468E-03   Z22=1.67148049674416E-04   R33=0.204538858448424 _
        R22=3.20514160160227E-02   Color=Magenta   FromFile=Yes   AMod=1   A2Mod=1   A3Mod=1   JMod=1   I2Mod=1   I3Mod=1   MMod=1   WMod=1   SectInFile=W21X44   FileName="C:\Program Files\Computers and Structures\SAP2000 9\Sections8.pro"
   SectionName=W21X50   Material=STEEL   Shape="I/Wide Flange"   t3=0.528319980621338   t2=0.165862005329132   tf=1.35890006661415E-02   tw=9.65199987888336E-03   t2b=0.165862005329132   tfb=1.35890006661415E-02   Area=9.4838518769455E-03 _
        TorsConst=4.74503819229762E-07   I33=4.095717227904E-04   I22=1.03641623386603E-05   AS2=5.09934451448441E-03   AS3=3.75649777637482E-03   S33=1.55046841994777E-03   S22=1.24973315233877E-04   Z33=0.00180257704 _
        Z22=1.99922177674416E-04   R33=0.207812947066614   R22=3.30578589484219E-02   Color=Yellow   FromFile=Yes   AMod=1   A2Mod=1   A3Mod=1   JMod=1   I2Mod=1   I3Mod=1   MMod=1   WMod=1   SectInFile=W21X50   FileName="C:\Program Files\Computers and Structures\SAP2000 9\Sections8.pro"
   SectionName=W24X103   Material=STEEL   Shape="I/Wide Flange"   t3=0.6223   t2=0.2286   tf=2.48920004844666E-02   tw=1.39700003027916E-02   t2b=0.2286   tfb=2.48920004844666E-02   Area=0.019548347507782   TorsConst=2.94275625044286E-06 _
        I33=0.0012486942768   I22=4.95315396464E-05   AS2=8.69353124610901E-03   AS3=9.4838518769455E-03   S33=4.01315853061224E-03   S22=4.33346803555556E-04   Z33=0.00458837792   Z22=0.000680063156   R33=0.252739449495266 _
        R22=5.03368330695302E-02   Color=Cyan   FromFile=Yes   AMod=1   A2Mod=1   A3Mod=1   JMod=1   I2Mod=1   I3Mod=1   MMod=1   WMod=1   SectInFile=W24X103   FileName="C:\Program Files\Computers and Structures\SAP2000 9\Sections8.pro"
   SectionName=W24X117   Material=STEEL   Shape="I/Wide Flange"   t3=0.617219980621338   t2=0.325120004844666   tf=2.15900006055832E-02   tw=1.39700003027916E-02   t2b=0.325120004844666   tfb=2.15900006055832E-02   Area=0.022193504984436 _
        TorsConst=2.79707509270317E-06   I33=0.001473459246624   I22=1.236207334032E-04   AS2=8.62256325233459E-03   AS3=0.011698901251297   S33=4.77450274743442E-03   S22=7.60462177418231E-04   Z33=0.005358569928   Z22=1.17003639460468E-03 _
        R33=0.257665407401453   R22=7.46333112509075E-02   Color=Red   FromFile=Yes   AMod=1   A2Mod=1   A3Mod=1   JMod=1   I2Mod=1   I3Mod=1   MMod=1   WMod=1   SectInFile=W24X117   FileName="C:\Program Files\Computers and Structures\SAP2000 9\Sections8.pro"
   SectionName=W24X131   Material=STEEL   Shape="I/Wide Flange"   t3=0.6223   t2=0.327659990310669   tf=2.43839994549751E-02   tw=1.53670004844666E-02   t2b=0.327659990310669   tfb=2.43839994549751E-02   Area=0.02483866 _
        TorsConst=3.9541985432E-06   I33=0.001673250330912   I22=0.000141518684704   AS2=9.5628842476654E-03   AS3=1.33161020062256E-02   S33=5.37763243102041E-03   S22=8.63814251900697E-04   Z33=0.00606321368   Z22=0.001335545716 _
        R33=0.259547218134887   R22=7.54818977180415E-02   Color=Magenta   FromFile=Yes   AMod=1   A2Mod=1   A3Mod=1   JMod=1   I2Mod=1   I3Mod=1   MMod=1   WMod=1   SectInFile=W24X131   FileName="C:\Program Files\Computers and Structures\SAP2000 9\Sections8.pro"
   SectionName=W24X146   Material=STEEL   Shape="I/Wide Flange"   t3=0.627380019378662   t2=0.327659990310669   tf=2.76860008478165E-02   tw=1.65099993944168E-02   t2b=0.327659990310669   tfb=2.76860008478165E-02   Area=0.02774188 _
        TorsConst=5.57750094426031E-06   I33=0.001906339929248   I22=1.627464874096E-04   AS2=1.03580439968872E-02   AS3=1.51193242554474E-02   S33=6.07714581390711E-03   S22=9.93386389685801E-04   Z33=0.006849792752 _
        Z22=1.52727431479065E-03   R33=0.262139355802339   R22=7.65927861075763E-02   Color=Yellow   FromFile=Yes   AMod=1   A2Mod=1   A3Mod=1   JMod=1   I2Mod=1   I3Mod=1   MMod=1   WMod=1   SectInFile=W24X146   FileName="C:\Program Files\Computers and Structures\SAP2000 9\Sections8.pro"
   SectionName=W24X162   Material=STEEL   Shape="I/Wide Flange"   t3=0.635   t2=0.3302   tf=3.09880007266998E-02   tw=1.79069995760918E-02   t2b=0.3302   tfb=3.09880007266998E-02   Area=0.030774132492218   TorsConst=7.7002813736E-06 _
        I33=0.002151916470352   I22=1.843905215408E-04   AS2=0.011370945   AS3=0.017053728759079   S33=0.0067776896704   S22=1.11684143876923E-03   Z33=0.007669145952   Z22=0.00172064172   R33=0.264435522636592   R22=7.74063138921521E-02 _
        Color=White   FromFile=Yes   AMod=1   A2Mod=1   A3Mod=1   JMod=1   I2Mod=1   I3Mod=1   MMod=1   WMod=1   SectInFile=W24X162   FileName="C:\Program Files\Computers and Structures\SAP2000 9\Sections8.pro"
   SectionName=W24X176   Material=STEEL   Shape="I/Wide Flange"   t3=0.640080019378662   t2=0.327659990310669   tf=3.40360008478165E-02   tw=0.01905   t2b=0.327659990310669   tfb=3.40360008478165E-02   Area=0.033354772492218 _
        TorsConst=9.94793091306031E-06   I33=0.002364194497408   I22=1.993748528624E-04   AS2=0.012193523753891   AS3=1.85870592554474E-02   S33=7.38718418269943E-03   S22=1.21696184311892E-03   Z33=0.008373789704   Z22=0.00188451236 _
        R33=0.266233443684714   R22=7.73136538544957E-02   Color=Gray8Dark   FromFile=Yes   AMod=1   A2Mod=1   A3Mod=1   JMod=1   I2Mod=1   I3Mod=1   MMod=1   WMod=1   SectInFile=W24X176   FileName="C:\Program Files\Computers and Structures\SAP2000 9\Sections8.pro"
   SectionName=W24X207   Material=STEEL   Shape="I/Wide Flange"   t3=0.652780019378662   t2=0.3302   tf=0.039878001332283   tw=2.20980001211166E-02   t2b=0.3302   tfb=0.039878001332283   Area=0.039161212492218 _
        TorsConst=1.59416632829206E-05   I33=0.002838698322592   I22=2.405817639968E-04   AS2=1.44251319576263E-02   AS3=0.021946192502594   S33=8.69725861184896E-03   S22=1.45718815261538E-03   Z33=0.009930560784   Z22=0.002245027768 _
        R33=0.269235024217096   R22=7.83796441769238E-02   Color=Blue   FromFile=Yes   AMod=1   A2Mod=1   A3Mod=1   JMod=1   I2Mod=1   I3Mod=1   MMod=1   WMod=1   SectInFile=W24X207   FileName="C:\Program Files\Computers and Structures\SAP2000 9\Sections8.pro"
   SectionName=W24X250   Material=STEEL   Shape="I/Wide Flange"   t3=0.668019980621338   t2=0.335279995155334   tf=4.80059996366501E-02   tw=2.64159990310669E-02   t2b=0.335279995155334   tfb=4.80059996366501E-02   Area=0.04741926 _
        TorsConst=2.77210123098412E-05   I33=0.003533804803344   I22=3.013515521344E-04   AS2=1.76464158573151E-02   AS3=2.68257539813232E-02   S33=1.05799374445571E-02   S22=1.79761128900509E-03   Z33=0.012191975616   Z22=0.002802187944 _
        R33=0.27298821085407   R22=7.97185388863649E-02   Color=Green   FromFile=Yes   AMod=1   A2Mod=1   A3Mod=1   JMod=1   I2Mod=1   I3Mod=1   MMod=1   WMod=1   SectInFile=W24X250   FileName="C:\Program Files\Computers and Structures\SAP2000 9\Sections8.pro"
   SectionName=W24X335   Material=STEEL   Shape="I/Wide Flange"   t3=0.6985   t2=0.3429   tf=6.29920004844666E-02   tw=3.50519998788834E-02   t2b=0.3429   tfb=6.29920004844666E-02   Area=0.063483744984436   TorsConst=6.32671766912E-05 _
        I33=0.00495315396464   I22=0.000428718368368   AS2=0.024483822492218   AS3=0.035999927507782   S33=1.41822590254545E-02   S22=2.50054458074074E-03   Z33=0.01671480528   Z22=0.003900121232   R33=0.27932489535324 _
        R22=8.21778503142464E-02   Color=Cyan   FromFile=Yes   AMod=1   A2Mod=1   A3Mod=1   JMod=1   I2Mod=1   I3Mod=1   MMod=1   WMod=1   SectInFile=W24X335   FileName="C:\Program Files\Computers and Structures\SAP2000 9\Sections8.pro"
   SectionName=W24X55   Material=STEEL   Shape="I/Wide Flange"   t3=0.599440009689331   t2=0.178054005813599   tf=1.28269998788834E-02   tw=1.00330002725124E-02   t2b=0.178054005813599   tfb=1.28269998788834E-02   Area=0.010516107507782 _
        TorsConst=5.16126971713492E-07   I33=0.000566074738816   I22=1.21123346437397E-05   AS2=6.01418122959137E-03   AS3=3.80649789787292E-03   S33=1.88867853218332E-03   S22=1.36052368924739E-04   Z33=0.00221225364 _
        Z22=2.19586651348831E-04   R33=0.23201142888452   R22=3.39380137996598E-02   Color=White   FromFile=Yes   AMod=1   A2Mod=1   A3Mod=1   JMod=1   I2Mod=1   I3Mod=1   MMod=1   WMod=1   SectInFile=W24X55   FileName="C:\Program Files\Computers and Structures\SAP2000 9\Sections8.pro"
   SectionName=W24X62   Material=STEEL   Shape="I/Wide Flange"   t3=0.601980019378662   t2=0.178815999031067   tf=1.49859993338585E-02   tw=0.010922000181675   t2b=0.178815999031067   tfb=1.49859993338585E-02   Area=0.011806427507782 _
        TorsConst=7.36729615373016E-07   I33=0.000649321023936   I22=1.43599841832E-05   AS2=6.57482555015564E-03   AS3=4.46622755119324E-03   S33=2.15728430523724E-03   S22=1.60611849733928E-04   Z33=0.002523607856 _
        Z22=2.58915614325584E-04   R33=0.234514921048773   R22=3.48752820291019E-02   Color=Gray8Dark   FromFile=Yes   AMod=1   A2Mod=1   A3Mod=1   JMod=1   I2Mod=1   I3Mod=1   MMod=1   WMod=1   SectInFile=W24X62   FileName="C:\Program Files\Computers and Structures\SAP2000 9\Sections8.pro"
   SectionName=W24X68   Material=STEEL   Shape="I/Wide Flange"   t3=0.601980019378662   t2=0.227838006782532   tf=1.48589994549751E-02   tw=1.05409997880459E-02   t2b=0.227838006782532   tfb=1.48589994549751E-02   Area=0.012967716246109 _
        TorsConst=7.78352767856746E-07   I33=0.000761703508848   I22=2.93026929973587E-05   AS2=6.34547102741241E-03   AS3=5.64240834564209E-03   S33=2.53066043498984E-03   S22=2.57223923358211E-04   Z33=0.002900510328   Z22=0.000401483068 _
        R33=0.242360158950313   R22=4.75359325322807E-02   Color=Blue   FromFile=Yes   AMod=1   A2Mod=1   A3Mod=1   JMod=1   I2Mod=1   I3Mod=1   MMod=1   WMod=1   SectInFile=W24X68   FileName="C:\Program Files\Computers and Structures\SAP2000 9\Sections8.pro"
   SectionName=W24X76   Material=STEEL   Shape="I/Wide Flange"   t3=0.607059990310669   t2=0.228345994186401   tf=0.017272000181675   tw=1.11759999394417E-02   t2b=0.228345994186401   tfb=0.017272000181675   Area=0.014451583753891 _
        TorsConst=1.11550024839445E-06   I33=0.00087408599376   I22=0.000034339092612   AS2=6.78450242710114E-03   AS3=6.57331997829437E-03   S33=2.87973514219798E-03   S22=3.0076369620015E-04   Z33=0.0032774128   Z22=4.68670036651169E-04 _
        R33=0.24593444457829   R22=4.87457419873174E-02   Color=Green   FromFile=Yes   AMod=1   A2Mod=1   A3Mod=1   JMod=1   I2Mod=1   I3Mod=1   MMod=1   WMod=1   SectInFile=W24X76   FileName="C:\Program Files\Computers and Structures\SAP2000 9\Sections8.pro"
   SectionName=W27X84   Material=STEEL   Shape="I/Wide Flange"   t3=0.678180019378662   t2=0.252984000968933   tf=1.62559996366501E-02   tw=1.16840002119541E-02   t2b=0.252984000968933   tfb=1.62559996366501E-02   Area=0.015999967507782 _
        TorsConst=1.16961028211905E-06   I33=0.00118625956296   I22=4.41205311136E-05   AS2=7.92385485420227E-03   AS3=6.85417957912445E-03   S33=3.49836187756411E-03   S22=3.48800959306657E-04   Z33=0.003998443616 _
        Z22=5.44050537302338E-04   R33=0.272289135384804   R22=5.25122727989323E-02   Color=Red   FromFile=Yes   AMod=1   A2Mod=1   A3Mod=1   JMod=1   I2Mod=1   I3Mod=1   MMod=1   WMod=1   SectInFile=W27X84   FileName="C:\Program Files\Computers and Structures\SAP2000 9\Sections8.pro"
   SectionName=W27X94   Material=STEEL   Shape="I/Wide Flange"   t3=0.683259990310669   t2=0.253745994186401   tf=1.89230001211166E-02   tw=1.24460002422333E-02   t2b=0.253745994186401   tfb=1.89230001211166E-02   Area=0.017870932492218 _
        TorsConst=1.67741273249683E-06   I33=0.001361076761712   I22=5.16126967744E-05   AS2=8.50385380249023E-03   AS3=8.00272602352142E-03   S33=3.98406691746472E-03   S22=4.06806002513564E-04   Z33=0.004555603792 _
        Z22=6.35818070697662E-04   R33=0.275973703940991   R22=5.37408670090068E-02   Color=Magenta   FromFile=Yes   AMod=1   A2Mod=1   A3Mod=1   JMod=1   I2Mod=1   I3Mod=1   MMod=1   WMod=1   SectInFile=W27X94   FileName="C:\Program Files\Computers and Structures\SAP2000 9\Sections8.pro"
   SectionName=W30X108   Material=STEEL   Shape="I/Wide Flange"   t3=0.756919980621338   t2=0.2667   tf=1.93039997577667E-02   tw=1.38430004239082E-02   t2b=0.2667   tfb=1.93039997577667E-02   Area=0.020451572492218 _
        TorsConst=2.07699471847619E-06   I33=0.001860554472432   I22=6.07697881376E-05   AS2=1.04780430579376E-02   AS3=8.5806281230545E-03   S33=4.91611932586246E-03   S22=4.5571644647619E-04   Z33=0.005669924144   Z22=7.19392134604675E-04 _
        R33=0.301618406974167   R22=5.45105429946451E-02   Color=White   FromFile=Yes   AMod=1   A2Mod=1   A3Mod=1   JMod=1   I2Mod=1   I3Mod=1   MMod=1   WMod=1   SectInFile=W30X108   FileName="C:\Program Files\Computers and Structures\SAP2000 9\Sections8.pro"
   SectionName=W30X116   Material=STEEL   Shape="I/Wide Flange"   t3=0.762   t2=0.2667   tf=2.15900006055832E-02   tw=1.43509999394417E-02   t2b=0.2667   tfb=2.15900006055832E-02   Area=0.022064472492218   TorsConst=2.67636799515714E-06 _
        I33=0.002052020928208   I22=6.82619537984E-05   AS2=0.010935462492218   AS3=0.009596755   S33=5.38588170133333E-03   S22=5.11900665904762E-04   Z33=0.006194310192   Z22=8.06243561302338E-04   R33=0.304960870323127 _
        R22=5.56214854043511E-02   Color=Gray8Dark   FromFile=Yes   AMod=1   A2Mod=1   A3Mod=1   JMod=1   I2Mod=1   I3Mod=1   MMod=1   WMod=1   SectInFile=W30X116   FileName="C:\Program Files\Computers and Structures\SAP2000 9\Sections8.pro"
   SectionName=W30X148   Material=STEEL   Shape="I/Wide Flange"   t3=0.779780019378662   t2=0.2667   tf=0.029971998667717   tw=1.65099993944168E-02   t2b=0.2667   tfb=0.029971998667717   Area=0.02806446   TorsConst=6.0353556712E-06 _
        I33=0.002780425923008   I22=9.44845336112E-05   AS2=1.28741677507782E-02   AS3=0.013322553753891   S33=7.13130845600141E-03   S22=7.08545433904762E-04   Z33=0.008193532   Z22=0.001114320352   R33=0.31475839302076 _
        R22=5.80232454408942E-02   Color=Blue   FromFile=Yes   AMod=1   A2Mod=1   A3Mod=1   JMod=1   I2Mod=1   I3Mod=1   MMod=1   WMod=1   SectInFile=W30X148   FileName="C:\Program Files\Computers and Structures\SAP2000 9\Sections8.pro"
   SectionName=W30X173   Material=STEEL   Shape="I/Wide Flange"   t3=0.772159990310669   t2=0.381   tf=0.027178001332283   tw=1.66369992733002E-02   t2b=0.381   tfb=0.027178001332283   Area=0.03290316   TorsConst=6.49321039813969E-06 _
        I33=0.003425584632688   I22=2.489063925088E-04   AS2=1.28464263433075E-02   AS3=0.01725803   S33=8.87273279028549E-03   S22=1.30659523626667E-03   Z33=0.009946947848   Z22=0.002015608872   R33=0.322662538460061 _
        R22=8.69759579131036E-02   Color=Green   FromFile=Yes   AMod=1   A2Mod=1   A3Mod=1   JMod=1   I2Mod=1   I3Mod=1   MMod=1   WMod=1   SectInFile=W30X173   FileName="C:\Program Files\Computers and Structures\SAP2000 9\Sections8.pro"
   SectionName=W30X191   Material=STEEL   Shape="I/Wide Flange"   t3=0.779780019378662   t2=0.381   tf=3.02260014533997E-02   tw=1.80339994549751E-02   t2b=0.381   tfb=3.02260014533997E-02   Area=0.036322507507782 _
        TorsConst=8.7408599376E-06   I33=0.00382932911552   I22=2.801237494288E-04   AS2=1.40625530909729E-02   AS3=0.01919351   S33=9.82156254419356E-03   S22=1.47046587626667E-03   Z33=0.0110612682   Z22=0.002261414832 _
        R33=0.324693381264824   R22=8.78187101897657E-02   Color=Cyan   FromFile=Yes   AMod=1   A2Mod=1   A3Mod=1   JMod=1   I2Mod=1   I3Mod=1   MMod=1   WMod=1   SectInFile=W30X191   FileName="C:\Program Files\Computers and Structures\SAP2000 9\Sections8.pro"
   SectionName=W30X99   Material=STEEL   Shape="I/Wide Flange"   t3=0.754380019378662   t2=0.2667   tf=1.70180004239082E-02   tw=1.32079995155334E-02   t2b=0.2667   tfb=1.70180004239082E-02   Area=0.018774156246109 _
        TorsConst=1.56919246657302E-06   I33=0.001660763388144   I22=5.32776224768E-05   AS2=9.96385119750976E-03   AS3=7.56450124610901E-03   S33=4.40298880002647E-03   S22=3.99532227047619E-04   Z33=0.005112763968 _
        Z22=6.32540645395325E-04   R33=0.297422395448981   R22=5.32711661682927E-02   Color=Yellow   FromFile=Yes   AMod=1   A2Mod=1   A3Mod=1   JMod=1   I2Mod=1   I3Mod=1   MMod=1   WMod=1   SectInFile=W30X99   FileName="C:\Program Files\Computers and Structures\SAP2000 9\Sections8.pro"
   SectionName=W33X118   Material=STEEL   Shape="I/Wide Flange"   t3=0.835660038757324   t2=0.2921   tf=1.87960002422333E-02   tw=1.39700003027916E-02   t2b=0.2921   tfb=1.87960002422333E-02   Area=0.022387052492218 _
        TorsConst=2.20602663506984E-06   I33=0.00245576541104   I22=7.78352765872E-05   AS2=1.16741697570038E-02   AS3=9.1505193743515E-03   S33=5.87742693713551E-03   S22=5.32935820521739E-04   Z33=0.00680063156   Z22=8.40656370697662E-04 _
        R33=0.331203547830263   R22=5.89643856138502E-02   Color=Red   FromFile=Yes   AMod=1   A2Mod=1   A3Mod=1   JMod=1   I2Mod=1   I3Mod=1   MMod=1   WMod=1   SectInFile=W33X118   FileName="C:\Program Files\Computers and Structures\SAP2000 9\Sections8.pro"
   SectionName=W33X130   Material=STEEL   Shape="I/Wide Flange"   t3=0.840739961242676   t2=0.2921   tf=2.17170004844666E-02   tw=1.47319995760918E-02   t2b=0.2921   tfb=2.17170004844666E-02   Area=0.024709627507782 _
        TorsConst=3.06762555903809E-06   I33=0.002792912865776   I22=9.07384507808E-05   AS2=1.23857816504669E-02   AS3=0.010572559992218   S33=6.6439398494818E-03   S22=6.21283469913043E-04   Z33=0.007652758888   Z22=0.000975030308 _
        R33=0.336198362676227   R22=6.05985985933614E-02   Color=Magenta   FromFile=Yes   AMod=1   A2Mod=1   A3Mod=1   JMod=1   I2Mod=1   I3Mod=1   MMod=1   WMod=1   SectInFile=W33X130   FileName="C:\Program Files\Computers and Structures\SAP2000 9\Sections8.pro"
   SectionName=W36X135   Material=STEEL   Shape="I/Wide Flange"   t3=0.904239961242676   t2=0.3048   tf=2.00660005450249E-02   tw=1.52400006055832E-02   t2b=0.3048   tfb=2.00660005450249E-02   Area=0.025612852492218 _
        TorsConst=2.9136199792E-06   I33=0.00324660511968   I22=0.00009365207076   AS2=1.37806179937744E-02   AS3=1.01935281230545E-02   S33=7.18084857744678E-03   S22=0.0006145149   Z33=0.008341015576   Z22=9.78307733302338E-04 _
        R33=0.356029316402936   R22=6.04685727667867E-02   Color=Yellow   FromFile=Yes   AMod=1   A2Mod=1   A3Mod=1   JMod=1   I2Mod=1   I3Mod=1   MMod=1   WMod=1   SectInFile=W36X135   FileName="C:\Program Files\Computers and Structures\SAP2000 9\Sections8.pro"
   SectionName=W36X150   Material=STEEL   Shape="I/Wide Flange"   t3=0.911860038757324   t2=0.3048   tf=2.38759999394417E-02   tw=0.015875   t2b=0.3048   tfb=2.38759999394417E-02   Area=0.028516072492218   TorsConst=4.20393755733969E-06 _
        I33=0.003762732087424   I22=0.000112382484912   AS2=0.0144757775   AS3=0.012129007507782   S33=8.2528719923988E-03   S22=0.00073741788   Z33=0.009520884184   Z22=1.16184286260468E-03   R33=0.363250978994522 _
        R22=6.27775641165545E-02   Color=White   FromFile=Yes   AMod=1   A2Mod=1   A3Mod=1   JMod=1   I2Mod=1   I3Mod=1   MMod=1   WMod=1   SectInFile=W36X150   FileName="C:\Program Files\Computers and Structures\SAP2000 9\Sections8.pro"
   SectionName=W36X194   Material=STEEL   Shape="I/Wide Flange"   t3=0.9271   t2=0.307340009689331   tf=3.20039997577667E-02   tw=1.94309996366501E-02   t2b=0.307340009689331   tfb=3.20039997577667E-02   Area=0.03677412 _
        TorsConst=9.24033796587938E-06   I33=0.00503640024976   I22=0.0001560867846   AS2=1.80144804937744E-02   AS3=1.63935155015564E-02   S33=1.08648479123288E-02   S22=1.01572707541577E-03   Z33=0.012568878088   Z22=1.60101610279065E-03 _
        R33=0.370074340563973   R22=6.51496253574073E-02   Color=Gray8Dark   FromFile=Yes   AMod=1   A2Mod=1   A3Mod=1   JMod=1   I2Mod=1   I3Mod=1   MMod=1   WMod=1   SectInFile=W36X194   FileName="C:\Program Files\Computers and Structures\SAP2000 9\Sections8.pro"
   SectionName=W36X210   Material=STEEL   Shape="I/Wide Flange"   t3=0.932180019378662   t2=0.309879995155334   tf=3.45440003633499E-02   tw=2.10819995760918E-02   t2b=0.309879995155334   tfb=3.45440003633499E-02   Area=0.039870887507782 _
        TorsConst=1.16544799168E-05   I33=0.00549425481792   I22=1.710711159216E-04   AS2=1.96522190454865E-02   AS3=1.78408247466278E-02   S33=1.17879694988145E-02   S22=1.10411203431087E-03   Z33=0.013650424312   Z22=0.001753415848 _
        R33=0.37121579539365   R22=6.55028796117781E-02   Color=Blue   FromFile=Yes   AMod=1   A2Mod=1   A3Mod=1   JMod=1   I2Mod=1   I3Mod=1   MMod=1   WMod=1   SectInFile=W36X210   FileName="C:\Program Files\Computers and Structures\SAP2000 9\Sections8.pro"
   SectionName=W36X230   Material=STEEL   Shape="I/Wide Flange"   t3=0.911860038757324   t2=0.4191   tf=3.20039997577667E-02   tw=1.93039997577667E-02   t2b=0.4191   tfb=3.20039997577667E-02   Area=0.043612815015564 _
        TorsConst=1.19042189309397E-05   I33=0.006243471384   I22=0.000391257540064   AS2=1.76025456959534E-02   AS3=0.022354794984436   S33=1.36939247661484E-02   S22=1.86713214060606E-03   Z33=0.015453001352   Z22=0.002884123264 _
        R33=0.37836068501509   R22=0.094716207513879   Color=Green   FromFile=Yes   AMod=1   A2Mod=1   A3Mod=1   JMod=1   I2Mod=1   I3Mod=1   MMod=1   WMod=1   SectInFile=W36X230   FileName="C:\Program Files\Computers and Structures\SAP2000 9\Sections8.pro"
   SectionName=W36X260   Material=STEEL   Shape="I/Wide Flange"   t3=0.922019980621338   t2=0.421640009689331   tf=3.65760014533997E-02   tw=2.13359993338585E-02   t2b=0.421640009689331   tfb=3.65760014533997E-02   Area=0.04935474 _
        TorsConst=1.72736041624E-05   I33=0.00720080366288   I22=0.000453692253904   AS2=1.96722190940857E-02   AS3=2.57031744984436E-02   S33=1.56196260693341E-02   S22=2.15203606620864E-03   Z33=0.01769802912   Z22=0.003342961056 _
        R33=0.381967181973236   R22=9.58773999282076E-02   Color=Cyan   FromFile=Yes   AMod=1   A2Mod=1   A3Mod=1   JMod=1   I2Mod=1   I3Mod=1   MMod=1   WMod=1   SectInFile=W36X260   FileName="C:\Program Files\Computers and Structures\SAP2000 9\Sections8.pro"
   SectionName=W36X300   Material=STEEL   Shape="I/Wide Flange"   t3=0.932180019378662   t2=0.424180019378662   tf=0.042671998667717   tw=0.024002999818325   t2b=0.424180019378662   tfb=0.042671998667717   Area=5.69676299688721E-02 _
        TorsConst=2.67220562532825E-05   I33=0.00844949793968   I22=0.00054110085328   AS2=2.23751162052917E-02   AS3=3.01676805171204E-02   S33=0.018128468244389   S22=2.55127930859451E-03   Z33=0.02064770064   Z22=0.003949282424 _
        R33=0.385124702890434   R22=9.74596917587132E-02   Color=Red   FromFile=Yes   AMod=1   A2Mod=1   A3Mod=1   JMod=1   I2Mod=1   I3Mod=1   MMod=1   WMod=1   SectInFile=W36X300   FileName="C:\Program Files\Computers and Structures\SAP2000 9\Sections8.pro"
   SectionName=W8X10   Material=STEEL   Shape="I/Wide Flange"   t3=0.200405996608734   t2=0.1000760014534   tf=5.20699995458126E-03   tw=4.31800004541874E-03   t2b=0.1000760014534   tfb=5.20699995458126E-03   Area=1.9096736246109E-03 _
        TorsConst=1.77314580706319E-08   I33=1.28199275909206E-05   I22=8.6992364377857E-07   AS2=8.65353114891052E-04   AS3=8.68492850570679E-04   S33=1.27939560770228E-04   S22=1.73852598254268E-05   Z33=1.45353255804649E-04 _
        Z22=2.72025256930227E-05   R33=8.19338214569893E-02   R22=2.13432716726362E-02   Color=Magenta   FromFile=Yes   AMod=1   A2Mod=1   A3Mod=1   JMod=1   I2Mod=1   I3Mod=1   MMod=1   WMod=1   SectInFile=W8X10   FileName="C:\Program Files\Computers and Structures\SAP2000 9\Sections8.pro"
   SectionName=W8X24   Material=STEEL   Shape="I/Wide Flange"   t3=0.201421995639801   t2=0.1651   tf=1.01600001513958E-02   tw=6.22300012111664E-03   t2b=0.1651   tfb=1.01600001513958E-02   Area=4.5677327507782E-03 _
        TorsConst=1.44016067402599E-07   I33=3.44223376268825E-05   I22=7.61703477092062E-06   AS2=1.2534491019392E-03   AS3=2.79569343587875E-03   S33=3.41793233827742E-04   S22=9.2271771906973E-05   Z33=3.78541184651169E-04 _
        Z22=1.40437133479065E-04   R33=8.68100161223547E-02   R22=4.08359464775658E-02   Color=Yellow   FromFile=Yes   AMod=1   A2Mod=1   A3Mod=1   JMod=1   I2Mod=1   I3Mod=1   MMod=1   WMod=1   SectInFile=W8X24   FileName="C:\Program Files\Computers and Structures\SAP2000 9\Sections8.pro"
   SectionName=W8X31   Material=STEEL   Shape="I/Wide Flange"   t3=0.2032   t2=0.2032   tf=1.10490000605583E-02   tw=7.23899990916252E-03   t2b=0.2032   tfb=1.10490000605583E-02   Area=5.8838591261673E-03   TorsConst=2.23100049678889E-07 _
        I33=0.000045785456816   I22=1.54421852546412E-05   AS2=1.47096478154182E-03   AS3=3.7419281230545E-03   S33=0.00045064426   S22=1.51990012348831E-04   Z33=4.98166739348831E-04   Z22=2.31057608651169E-04   R33=0.088213010295334 _
        R22=5.12298690842958E-02   Color=White   FromFile=Yes   AMod=1   A2Mod=1   A3Mod=1   JMod=1   I2Mod=1   I3Mod=1   MMod=1   WMod=1   SectInFile=W8X31   FileName="C:\Program Files\Computers and Structures\SAP2000 9\Sections8.pro"
   SectionName=W8X40   Material=STEEL   Shape="I/Wide Flange"   t3=0.20955   t2=0.204977992248535   tf=1.42240000605583E-02   tw=9.14400036334991E-03   t2b=0.204977992248535   tfb=1.42240000605583E-02   Area=7.5483718769455E-03 _
        TorsConst=4.66179198656746E-07   I33=6.07697881376E-05   I22=2.04369623618412E-05   AS2=1.91612521845818E-03   AS3=4.85934516183853E-03   S33=5.80002750060606E-04   S22=1.99406405903923E-04   Z33=6.52205134697662E-04 _
        Z22=0.000303160684   R33=8.97257747871719E-02   R22=5.20333189868179E-02   Color=Gray8Dark   FromFile=Yes   AMod=1   A2Mod=1   A3Mod=1   JMod=1   I2Mod=1   I3Mod=1   MMod=1   WMod=1   SectInFile=W8X40   FileName="C:\Program Files\Computers and Structures\SAP2000 9\Sections8.pro"
   SectionName=W8X58   Material=STEEL   Shape="I/Wide Flange"   t3=0.22225   t2=0.208788006782532   tf=2.05740000605583E-02   tw=1.29539997577667E-02   t2b=0.208788006782532   tfb=2.05740000605583E-02   Area=0.011032236246109 _
        TorsConst=1.38605061549206E-06   I33=9.49007650368E-05   I22=3.12589794274412E-05   AS2=2.87902656152725E-03   AS3=7.15934059875488E-03   S33=8.54000135314286E-04   S22=2.99432710806994E-04   Z33=9.79946414697662E-04 _
        Z22=4.57199079348831E-04   R33=9.27476853696925E-02   R22=5.32298963696744E-02   Color=Blue   FromFile=Yes   AMod=1   A2Mod=1   A3Mod=1   JMod=1   I2Mod=1   I3Mod=1   MMod=1   WMod=1   SectInFile=W8X58   FileName="C:\Program Files\Computers and Structures\SAP2000 9\Sections8.pro"
   SectionName=W8X67   Material=STEEL   Shape="I/Wide Flange"   t3=0.2286   t2=0.210311993217468   tf=2.37490000605583E-02   tw=0.014477999818325   t2b=0.210311993217468   tfb=2.37490000605583E-02   Area=0.012709652492218 _
        TorsConst=2.10196877866984E-06   I33=1.132149477632E-04   I22=3.68781036730412E-05   AS2=3.3096708738327E-03   AS3=8.32449940124512E-03   S33=9.90506979555556E-04   S22=3.50699007782293E-04   Z33=1.14873316139532E-03 _
        Z22=5.35857005302338E-04   R33=9.43811027082275E-02   R22=5.38663380575246E-02   Color=Green   FromFile=Yes   AMod=1   A2Mod=1   A3Mod=1   JMod=1   I2Mod=1   I3Mod=1   MMod=1   WMod=1   SectInFile=W8X67   FileName="C:\Program Files\Computers and Structures\SAP2000 9\Sections8.pro"
 
TABLE:  "FUNCTION - PLOT FUNCTIONS"
   PlotFunc="Input Energy"   Type=Energy   Component=Input   Mode=All
 
TABLE:  "FUNCTION - POWER SPECTRAL DENSITY - USER"
   Name=UNIFPSD   Frequency=0   Value=1
   Name=UNIFPSD   Frequency=1   Value=1
 
TABLE:  "FUNCTION - RESPONSE SPECTRUM - USER"
   Name=UNIFRS   Period=0   Accel=1
   Name=UNIFRS   Period=1   Accel=1
 
TABLE:  "FUNCTION - STEADY STATE - USER"
   Name=UNIFSS   Frequency=0   Value=1
   Name=UNIFSS   Frequency=1   Value=1
 
TABLE:  "FUNCTION - TIME HISTORY - USER"
   Name=RAMPTH   Time=0   Value=0
   Name=RAMPTH   Time=1   Value=1
   Name=RAMPTH   Time=4   Value=1
   Name=UNIFTH   Time=0   Value=1
   Name=UNIFTH   Time=1   Value=1
 
TABLE:  "GRID LINES"
   CoordSys=GLOBAL   AxisDir=X   GridID=x1   XRYZCoord=0   LineType=Primary   LineColor=Gray8Dark   Visible=Yes   BubbleLoc=End   AllVisible=Yes   BubbleSize=1.25
   CoordSys=GLOBAL   AxisDir=X   GridID=x2   XRYZCoord=3.6   LineType=Primary   LineColor=Gray8Dark   Visible=Yes   BubbleLoc=End
   CoordSys=GLOBAL   AxisDir=X   GridID=x3   XRYZCoord=7.2   LineType=Primary   LineColor=Gray8Dark   Visible=Yes   BubbleLoc=End
   CoordSys=GLOBAL   AxisDir=X   GridID=x4   XRYZCoord=13.2   LineType=Primary   LineColor=Gray8Dark   Visible=Yes   BubbleLoc=End
   CoordSys=GLOBAL   AxisDir=X   GridID=x5   XRYZCoord=16.8   LineType=Primary   LineColor=Gray8Dark   Visible=Yes   BubbleLoc=End
   CoordSys=GLOBAL   AxisDir=X   GridID=x6   XRYZCoord=20.4   LineType=Primary   LineColor=Gray8Dark   Visible=Yes   BubbleLoc=End
   CoordSys=GLOBAL   AxisDir=X   GridID=x7   XRYZCoord=24   LineType=Primary   LineColor=Gray8Dark   Visible=Yes   BubbleLoc=End
   CoordSys=GLOBAL   AxisDir=X   GridID=x8   XRYZCoord=27.6   LineType=Primary   LineColor=Gray8Dark   Visible=Yes   BubbleLoc=End
   CoordSys=GLOBAL   AxisDir=Y   GridID=y1   XRYZCoord=-1.5   LineType=Primary   LineColor=Gray8Dark   Visible=Yes   BubbleLoc=Start
   CoordSys=GLOBAL   AxisDir=Y   GridID=y2   XRYZCoord=0   LineType=Primary   LineColor=Gray8Dark   Visible=Yes   BubbleLoc=Start
   CoordSys=GLOBAL   AxisDir=Y   GridID=y3   XRYZCoord=4.2   LineType=Primary   LineColor=Gray8Dark   Visible=Yes   BubbleLoc=Start
   CoordSys=GLOBAL   AxisDir=Y   GridID=y4   XRYZCoord=8.4   LineType=Primary   LineColor=Gray8Dark   Visible=Yes   BubbleLoc=Start
   CoordSys=GLOBAL   AxisDir=Y   GridID=y5   XRYZCoord=12.4   LineType=Primary   LineColor=Gray8Dark   Visible=Yes   BubbleLoc=Start
   CoordSys=GLOBAL   AxisDir=Y   GridID=y6   XRYZCoord=16.6   LineType=Primary   LineColor=Gray8Dark   Visible=Yes   BubbleLoc=Start
   CoordSys=GLOBAL   AxisDir=Y   GridID=y7   XRYZCoord=20.8   LineType=Primary   LineColor=Gray8Dark   Visible=Yes   BubbleLoc=Start
   CoordSys=GLOBAL   AxisDir=Y   GridID=y8   XRYZCoord=22.3   LineType=Primary   LineColor=Gray8Dark   Visible=Yes   BubbleLoc=Start
   CoordSys=GLOBAL   AxisDir=Z   GridID=z1   XRYZCoord=0   LineType=Primary   LineColor=Gray8Dark   Visible=Yes   BubbleLoc=End
   CoordSys=GLOBAL   AxisDir=Z   GridID=z2   XRYZCoord=0.9   LineType=Primary   LineColor=Gray8Dark   Visible=Yes   BubbleLoc=End
   CoordSys=GLOBAL   AxisDir=Z   GridID=z3   XRYZCoord=5.7   LineType=Primary   LineColor=Gray8Dark   Visible=Yes   BubbleLoc=End
   CoordSys=GLOBAL   AxisDir=Z   GridID=z4   XRYZCoord=8.7   LineType=Primary   LineColor=Gray8Dark   Visible=Yes   BubbleLoc=End
   CoordSys=GLOBAL   AxisDir=Z   GridID=z5   XRYZCoord=11.7   LineType=Primary   LineColor=Gray8Dark   Visible=Yes   BubbleLoc=End
   CoordSys=GLOBAL   AxisDir=Z   GridID=z6   XRYZCoord=14.7   LineType=Primary   LineColor=Gray8Dark   Visible=Yes   BubbleLoc=End
   CoordSys=GLOBAL   AxisDir=Z   GridID=z7   XRYZCoord=17.7   LineType=Primary   LineColor=Gray8Dark   Visible=Yes   BubbleLoc=End
   CoordSys=GLOBAL   AxisDir=Z   GridID=z8   XRYZCoord=20.7   LineType=Primary   LineColor=Gray8Dark   Visible=Yes   BubbleLoc=End
   CoordSys=GLOBAL   AxisDir=Z   GridID=z9   XRYZCoord=23.7   LineType=Primary   LineColor=Gray8Dark   Visible=Yes   BubbleLoc=End
   CoordSys=GLOBAL   AxisDir=Z   GridID=z10   XRYZCoord=26.7   LineType=Primary   LineColor=Gray8Dark   Visible=Yes   BubbleLoc=End
   CoordSys=GLOBAL   AxisDir=Z   GridID=z11   XRYZCoord=29.7   LineType=Primary   LineColor=Gray8Dark   Visible=Yes   BubbleLoc=End
   CoordSys=GLOBAL   AxisDir=Z   GridID=z12   XRYZCoord=32.7   LineType=Primary   LineColor=Gray8Dark   Visible=Yes   BubbleLoc=End
 
TABLE:  "GROUPS 1 - DEFINITIONS"
   GroupName=ALL   Selection=Yes   SectionCut=Yes   Steel=Yes   Concrete=Yes   Aluminum=Yes   ColdFormed=Yes   Stage=Yes   Bridge=Yes   AutoSeismic=No   AutoWind=No   MassWeight=Yes
 
TABLE:  "JOINT COORDINATES"
   Joint=1   CoordSys=GLOBAL   CoordType=Cartesian   XorR=0   Y=0   Z=0   SpecialJt=No
   Joint=2   CoordSys=GLOBAL   CoordType=Cartesian   XorR=0   Y=0   Z=0.9   SpecialJt=No
   Joint=3   CoordSys=GLOBAL   CoordType=Cartesian   XorR=0   Y=0   Z=5.7   SpecialJt=No
   Joint=4   CoordSys=GLOBAL   CoordType=Cartesian   XorR=0   Y=0   Z=8.7   SpecialJt=No
   Joint=5   CoordSys=GLOBAL   CoordType=Cartesian   XorR=0   Y=0   Z=11.7   SpecialJt=No
   Joint=6   CoordSys=GLOBAL   CoordType=Cartesian   XorR=0   Y=0   Z=14.7   SpecialJt=No
   Joint=7   CoordSys=GLOBAL   CoordType=Cartesian   XorR=0   Y=0   Z=17.7   SpecialJt=No
   Joint=8   CoordSys=GLOBAL   CoordType=Cartesian   XorR=0   Y=0   Z=20.7   SpecialJt=No
   Joint=9   CoordSys=GLOBAL   CoordType=Cartesian   XorR=0   Y=0   Z=23.7   SpecialJt=No
   Joint=10   CoordSys=GLOBAL   CoordType=Cartesian   XorR=0   Y=0   Z=26.7   SpecialJt=No
   Joint=11   CoordSys=GLOBAL   CoordType=Cartesian   XorR=0   Y=0   Z=29.7   SpecialJt=No
   Joint=12   CoordSys=GLOBAL   CoordType=Cartesian   XorR=0   Y=0   Z=32.7   SpecialJt=No
   Joint=13   CoordSys=GLOBAL   CoordType=Cartesian   XorR=0   Y=4.2   Z=0   SpecialJt=No
   Joint=14   CoordSys=GLOBAL   CoordType=Cartesian   XorR=0   Y=4.2   Z=0.9   SpecialJt=No
   Joint=15   CoordSys=GLOBAL   CoordType=Cartesian   XorR=0   Y=4.2   Z=5.7   SpecialJt=No
   Joint=16   CoordSys=GLOBAL   CoordType=Cartesian   XorR=0   Y=4.2   Z=8.7   SpecialJt=No
   Joint=17   CoordSys=GLOBAL   CoordType=Cartesian   XorR=0   Y=4.2   Z=11.7   SpecialJt=No
   Joint=18   CoordSys=GLOBAL   CoordType=Cartesian   XorR=0   Y=4.2   Z=14.7   SpecialJt=No
   Joint=19   CoordSys=GLOBAL   CoordType=Cartesian   XorR=0   Y=4.2   Z=17.7   SpecialJt=No
   Joint=20   CoordSys=GLOBAL   CoordType=Cartesian   XorR=0   Y=4.2   Z=20.7   SpecialJt=No
# ... 555 like lines cut
   Joint=576   CoordSys=GLOBAL   CoordType=Cartesian   XorR=27.6   Y=20.8   Z=32.7   SpecialJt=Yes
   Joint=581   CoordSys=GLOBAL   CoordType=Cartesian   XorR=7.2   Y=-1.5   Z=0   SpecialJt=No
   Joint=582   CoordSys=GLOBAL   CoordType=Cartesian   XorR=2.69819164276123   Y=-1.5   Z=0   SpecialJt=No
   Joint=583   CoordSys=GLOBAL   CoordType=Cartesian   XorR=2.69819164276123   Y=0   Z=0   SpecialJt=No
 
TABLE:  "JOINT PATTERN DEFINITIONS"
   Pattern=DEFAULT
 
TABLE:  "LINK PROPERTY ASSIGNMENTS"
   Link=1   LinkProp=LIN1   LinkFDProp=None
 
TABLE:  "LINK PROPERTY DEFINITIONS 01 - GENERAL"
   Link=LIN1   LinkType=Linear   Mass=0   Weight=0   RotInert1=0   RotInert2=0   RotInert3=0   PDM2I=0   PDM2J=0   PDM3I=0   PDM3J=0   Color=Red
 
TABLE:  "LINK PROPERTY DEFINITIONS 02 - LINEAR"
   Link=LIN1   DOF=U1   Fixed=No   TransKE=1   TransCE=0
 
TABLE:  "LOAD CASE DEFINITIONS"
   LoadCase=DEAD   DesignType=DEAD   SelfWtMult=1
 
TABLE:  "MASSES 1 - MASS SOURCE"
   MassFrom=Elements
 
TABLE:  "MATERIAL PROPERTIES 01 - GENERAL"
   Material=ALUM   Type=Isotropic   DesignType=Aluminum   UnitMass=276.799065409154   UnitWeight=2712.63084100971   E=7101003224.00645   U=0.33   A=0.00002358   MDampRatio=0   VDampMass=0   VDampStiff=0   HDampMass=0   HDampStiff=0   Color=Cyan
   Material=BT   Type=Isotropic   DesignType=Concrete   UnitMass=0   UnitWeight=24000   E=2600000000   U=0.2   A=0   MDampRatio=0   VDampMass=0   VDampStiff=0   HDampMass=0   HDampStiff=0   Color=Blue
   Material=CLDFRM   Type=Isotropic   DesignType=ColdFormed   UnitMass=800.38007068661   UnitWeight=7849.04757236607   E=20740553971.1079   U=0.3   A=0.0000117   MDampRatio=0   VDampMass=0   VDampStiff=0   HDampMass=0   HDampStiff=0   Color=Red
   Material=CONC   Type=Isotropic   DesignType=Concrete   UnitMass=245.014307353044   UnitWeight=2402.76966501002   E=2531050654.10131   U=0.2   A=0.0000099   MDampRatio=0   VDampMass=0   VDampStiff=0   HDampMass=0   HDampStiff=0   Color=Green
   Material=OTHER   Type=Isotropic   DesignType=None   UnitMass=244.801202423866   UnitWeight=2402.61588775146   E=2531050654.10131   U=0.2   A=0.0000099   MDampRatio=0   VDampMass=0   VDampStiff=0   HDampMass=0   HDampStiff=0   Color=Magenta
   Material=STEEL   Type=Isotropic   DesignType=Steel   UnitMass=800.38007068661   UnitWeight=7849.04757236607   E=20389019158.0383   U=0.3   A=0.0000117   MDampRatio=0   VDampMass=0   VDampStiff=0   HDampMass=0   HDampStiff=0   Color=Blue
 
TABLE:  "MATERIAL PROPERTIES 03 - DESIGN STEEL"
   Material=STEEL   Fy=25310506.5410131   Fu=40778038.3160766
 
TABLE:  "MATERIAL PROPERTIES 04 - DESIGN CONCRETE"
   Material=BT   Fc=2812278.5   RebarFy=42184180   RebarFys=28122785   LtWtConc=No   LtWtFact=1
   Material=CONC   Fc=2812278.50455701   RebarFy=42184177.5683551   RebarFys=28122785.0455701   LtWtConc=No   LtWtFact=1
 
TABLE:  "MATERIAL PROPERTIES 05 - DESIGN ALUMINUM"
   Material=ALUM   AlumType=Wrought   Alloy=6061-T6   Ftu=38   Fty=35   Fcy=35   Fsu=24   Fsy=20
 
TABLE:  "MATERIAL PROPERTIES 06 - DESIGN COLDFORMED"
   Material=CLDFRM   Fy=25310506.5410131   Fu=40778038.3160766
 
TABLE:  "MATERIAL PROPERTIES 07 - TIME DEPENDENCE FOR STEEL"
   Material=STEEL   Relaxation=No   Class=1
 
TABLE:  "MATERIAL PROPERTIES 08 - TIME DEPENDENCE FOR CONCRETE"
   Material=BT   E=No   Creep=No   Shrinkage=No   S=0.25   RelHumid=50   NotionSize=100   BetaSC=5   ShrinkStart=0   CreepType="Full Integration"
   Material=CONC   E=No   Creep=No   Shrinkage=No   S=0.25   RelHumid=50   NotionSize=0.1   BetaSC=5   ShrinkStart=0   CreepType="Full Integration"
 
TABLE:  "MATERIAL PROPERTIES 09 - STRESS-STRAIN CURVES 1 - GENERAL"
   Material=ALUM   SSCurve=Default-Steel   HysType=Kinematic   Color=Gray8Dark
   Material=BT   SSCurve=Default-Steel   HysType=Kinematic   Color=Gray8Dark
   Material=CLDFRM   SSCurve=Default-Steel   HysType=Kinematic   Color=Gray8Dark
   Material=CONC   SSCurve=Default-Rebar   HysType=Kinematic   Color=Gray8Dark
   Material=CONC   SSCurve=Default-Unconfined   HysType=Takeda   Color=Red
   Material=CONC   SSCurve=Default-Confined   HysType=Takeda   Color=Blue
   Material=STEEL   SSCurve=Default-Steel   HysType=Kinematic   Color=Gray8Dark
 
TABLE:  "MATERIAL PROPERTIES 10 - STRESS-STRAIN CURVES 2 - DATA"
   Material=ALUM   SSCurve=Default-Steel   Strain=-0.05   Stress=0   PointID=-E
   Material=ALUM   SSCurve=Default-Steel   Strain=-0.035   Stress=-17.5   PointID=-D
   Material=ALUM   SSCurve=Default-Steel   Strain=-0.02   Stress=-35   PointID=-C
   Material=ALUM   SSCurve=Default-Steel   Strain=-4.92888101806165E-09   Stress=-35   PointID=-B
   Material=ALUM   SSCurve=Default-Steel   Strain=0   Stress=0   PointID=A
   Material=ALUM   SSCurve=Default-Steel   Strain=4.92888101806165E-09   Stress=35   PointID=B
   Material=ALUM   SSCurve=Default-Steel   Strain=0.02   Stress=35
   Material=ALUM   SSCurve=Default-Steel   Strain=0.05   Stress=38   PointID=C
   Material=ALUM   SSCurve=Default-Steel   Strain=0.08   Stress=38   PointID=D
   Material=ALUM   SSCurve=Default-Steel   Strain=0.1   Stress=35   PointID=E
   Material=BT   SSCurve=Default-Steel   Strain=-0.05   Stress=0   PointID=-E
   Material=BT   SSCurve=Default-Steel   Strain=-0.035   Stress=-12655253.2705065   PointID=-D
   Material=BT   SSCurve=Default-Steel   Strain=-0.02   Stress=-25310506.5410131   PointID=-C
   Material=BT   SSCurve=Default-Steel   Strain=-1.24137931034483E-03   Stress=-25310506.5410131   PointID=-B
   Material=BT   SSCurve=Default-Steel   Strain=0   Stress=0   PointID=A
   Material=BT   SSCurve=Default-Steel   Strain=1.24137931034483E-03   Stress=25310506.5410131   PointID=B
   Material=BT   SSCurve=Default-Steel   Strain=0.02   Stress=25310506.5410131
   Material=BT   SSCurve=Default-Steel   Strain=0.05   Stress=40778038.3160766   PointID=C
   Material=BT   SSCurve=Default-Steel   Strain=0.08   Stress=40778038.3160766   PointID=D
   Material=BT   SSCurve=Default-Steel   Strain=0.1   Stress=25310506.5410131   PointID=E
   Material=CLDFRM   SSCurve=Default-Steel   Strain=-0.05   Stress=0   PointID=-E
   Material=CLDFRM   SSCurve=Default-Steel   Strain=-0.035   Stress=-12655253.2705065   PointID=-D
   Material=CLDFRM   SSCurve=Default-Steel   Strain=-0.02   Stress=-25310506.5410131   PointID=-C
   Material=CLDFRM   SSCurve=Default-Steel   Strain=-1.22033898305085E-03   Stress=-25310506.5410131   PointID=-B
   Material=CLDFRM   SSCurve=Default-Steel   Strain=0   Stress=0   PointID=A
   Material=CLDFRM   SSCurve=Default-Steel   Strain=1.22033898305085E-03   Stress=25310506.5410131   PointID=B
   Material=CLDFRM   SSCurve=Default-Steel   Strain=0.02   Stress=25310506.5410131
   Material=CLDFRM   SSCurve=Default-Steel   Strain=0.05   Stress=40778038.3160766   PointID=C
   Material=CLDFRM   SSCurve=Default-Steel   Strain=0.08   Stress=40778038.3160766   PointID=D
   Material=CLDFRM   SSCurve=Default-Steel   Strain=0.1   Stress=25310506.5410131   PointID=E
   Material=CONC   SSCurve=Default-Rebar   Strain=-0.05   Stress=0   PointID=-E
   Material=CONC   SSCurve=Default-Rebar   Strain=-0.035   Stress=-21092088.7841776   PointID=-D
   Material=CONC   SSCurve=Default-Rebar   Strain=-0.02   Stress=-42184177.5683551   PointID=-C
   Material=CONC   SSCurve=Default-Rebar   Strain=-2.06896551724138E-03   Stress=-42184177.5683551   PointID=-B
   Material=CONC   SSCurve=Default-Rebar   Strain=0   Stress=0   PointID=A
   Material=CONC   SSCurve=Default-Rebar   Strain=2.06896551724138E-03   Stress=42184177.5683551   PointID=B
   Material=CONC   SSCurve=Default-Rebar   Strain=0.02   Stress=42184177.5683551
   Material=CONC   SSCurve=Default-Rebar   Strain=0.05   Stress=52730221.9604439   PointID=C
   Material=CONC   SSCurve=Default-Rebar   Strain=0.08   Stress=52730221.9604439   PointID=D
   Material=CONC   SSCurve=Default-Rebar   Strain=0.1   Stress=42184177.5683551   PointID=E
   Material=CONC   SSCurve=Default-Unconfined   Strain=-1.11111111111111E-02   Stress=0
   Material=CONC   SSCurve=Default-Unconfined   Strain=-2.22222222222222E-03   Stress=-2812278.50455701   PointID=-C
   Material=CONC   SSCurve=Default-Unconfined   Strain=-0.002   Stress=-2784155.71951144
   Material=CONC   SSCurve=Default-Unconfined   Strain=-1.77777777777778E-03   Stress=-2699787.36437473   PointID=-B
   Material=CONC   SSCurve=Default-Unconfined   Strain=-1.33333333333333E-03   Stress=-2362313.94382789
   Material=CONC   SSCurve=Default-Unconfined   Strain=-8.88888888888889E-04   Stress=-1799858.24291649
   Material=CONC   SSCurve=Default-Unconfined   Strain=-4.44444444444444E-04   Stress=-1012420.26164052
   Material=CONC   SSCurve=Default-Unconfined   Strain=0   Stress=0   PointID=A
   Material=CONC   SSCurve=Default-Unconfined   Strain=1.05409255338946E-04   Stress=266796.164673971
   Material=CONC   SSCurve=Default-Unconfined   Strain=1.06463347892335E-04   Stress=0
   Material=CONC   SSCurve=Default-Confined   Strain=-2.44444444444444E-02   Stress=0
   Material=CONC   SSCurve=Default-Confined   Strain=-2.22222222222222E-02   Stress=-562455.700911402   PointID=-E
   Material=CONC   SSCurve=Default-Confined   Strain=-1.77777777777778E-02   Stress=-562455.700911402   PointID=-D
   Material=CONC   SSCurve=Default-Confined   Strain=-2.22222222222222E-03   Stress=-2812278.50455701   PointID=-C
   Material=CONC   SSCurve=Default-Confined   Strain=-0.002   Stress=-2784155.71951144
   Material=CONC   SSCurve=Default-Confined   Strain=-1.77777777777778E-03   Stress=-2699787.36437473   PointID=-B
   Material=CONC   SSCurve=Default-Confined   Strain=-1.33333333333333E-03   Stress=-2362313.94382789
   Material=CONC   SSCurve=Default-Confined   Strain=-8.88888888888889E-04   Stress=-1799858.24291649
   Material=CONC   SSCurve=Default-Confined   Strain=-4.44444444444444E-04   Stress=-1012420.26164052
   Material=CONC   SSCurve=Default-Confined   Strain=0   Stress=0   PointID=A
   Material=CONC   SSCurve=Default-Confined   Strain=1.05409255338946E-04   Stress=266796.164673971
   Material=CONC   SSCurve=Default-Confined   Strain=1.06463347892335E-04   Stress=0
   Material=STEEL   SSCurve=Default-Steel   Strain=-0.05   Stress=0   PointID=-E
   Material=STEEL   SSCurve=Default-Steel   Strain=-0.035   Stress=-12655253.2705065   PointID=-D
   Material=STEEL   SSCurve=Default-Steel   Strain=-0.02   Stress=-25310506.5410131   PointID=-C
   Material=STEEL   SSCurve=Default-Steel   Strain=-1.24137931034483E-03   Stress=-25310506.5410131   PointID=-B
   Material=STEEL   SSCurve=Default-Steel   Strain=0   Stress=0   PointID=A
   Material=STEEL   SSCurve=Default-Steel   Strain=1.24137931034483E-03   Stress=25310506.5410131   PointID=B
   Material=STEEL   SSCurve=Default-Steel   Strain=0.02   Stress=25310506.5410131
   Material=STEEL   SSCurve=Default-Steel   Strain=0.05   Stress=40778038.3160766   PointID=C
   Material=STEEL   SSCurve=Default-Steel   Strain=0.08   Stress=40778038.3160766   PointID=D
   Material=STEEL   SSCurve=Default-Steel   Strain=0.1   Stress=25310506.5410131   PointID=E
 
TABLE:  "OPTIONS - COLORS - DISPLAY"
   DeviceType=Screen   Points=Yellow   LinesFrame=Yellow   LinesCable=Green   LinesTendon=Green   SpringLinks=Green   Restraints=Green   Releases=Green   Axes=Cyan   Text=Green   ShadowLines=Gray8Dark   GuideLines=Gray8Dark   AreaF5=Red _
        AreaF6=Yellow   AreaEdge=DarkRed   SolidF1=Red   SolidF2=Blue   SolidF3=Green   SolidF4=Yellow   SolidF5=White   SolidF6=Cyan   SolidEdge=DarkRed   Background=Black   Darkness=0.5
   DeviceType=Printer   Points=Gray8Dark   LinesFrame=Black   LinesCable=Black   LinesTendon=Black   SpringLinks=Gray8Dark   Restraints=Gray8Dark   Releases=Gray4   Axes=Black   Text=Black   ShadowLines=Gray4   GuideLines=Gray4 _
        AreaF5=Gray4   AreaF6=Gray8Dark   AreaEdge=Black   SolidF1=Gray1Light   SolidF2=Gray2   SolidF3=Gray3   SolidF4=Gray4   SolidF5=Gray5   SolidF6=Gray6   SolidEdge=Black   Background=White   Darkness=0.5
   DeviceType="Color Printer"   Points=Yellow   LinesFrame=Blue   LinesCable=Green   LinesTendon=Green   SpringLinks=Green   Restraints=Green   Releases=Green   Axes=Cyan   Text=Green   ShadowLines=Gray8Dark   GuideLines=Gray8Dark _
        AreaF5=Red   AreaF6=Yellow   AreaEdge=DarkRed   SolidF1=Red   SolidF2=Blue   SolidF3=Green   SolidF4=Yellow   SolidF5=White   SolidF6=Cyan   SolidEdge=DarkRed   Background=White   Darkness=0.5
 
TABLE:  "OPTIONS - COLORS - OUTPUT"
   DeviceType=Screen   Contour1=13107400   Contour2=6553828   Contour3=Red   Contour4=16639   Contour5=Orange   Contour6=43775   Contour7=54527   Contour8=Yellow   Contour9=65408   Contour10=Green   Contour11=8453888   Contour12=Cyan _
        Contour13=16755200   Contour14=16733440   Contour15=Blue   Transpare=0.5   Ratio1=Cyan   Ratio2=Green   Ratio3=Yellow   Ratio4=Orange   Ratio5=Red   RatioNotD=Gray4   RatioNotC=Red   RatioVal1=0.5   RatioVal2=0.7   RatioVal3=0.9 _
        RatioVal4=1   DFillPos=Yellow   DFillNeg=Red   DFillRPos=Blue   DFillRNeg=Cyan
   DeviceType=Printer   Contour1=Black   Contour2=3158064   Contour3=4210752   Contour4=5263440   Contour5=6316128   Contour6=7368816   Contour7=Gray8Dark   Contour8=Gray7   Contour9=Gray6   Contour10=Gray5   Contour11=Gray4 _
        Contour12=Gray3   Contour13=Gray2   Contour14=Gray1Light   Contour15=White   Transpare=0   Ratio1=Gray2   Ratio2=Gray4   Ratio3=Gray8Dark   Ratio4=4210752   Ratio5=Black   RatioNotD=Gray4   RatioNotC=Black   RatioVal1=0.5 _
        RatioVal2=0.7   RatioVal3=0.9   RatioVal4=1   DFillPos=Gray8Dark   DFillNeg=Gray8Dark   DFillRPos=4210752   DFillRNeg=4210752
   DeviceType="Color Printer"   Contour1=13107400   Contour2=6553828   Contour3=Red   Contour4=16639   Contour5=Orange   Contour6=43775   Contour7=54527   Contour8=Yellow   Contour9=65408   Contour10=Green   Contour11=8453888 _
        Contour12=Cyan   Contour13=16755200   Contour14=16733440   Contour15=Blue   Transpare=0.5   Ratio1=Cyan   Ratio2=Green   Ratio3=Yellow   Ratio4=Orange   Ratio5=Red   RatioNotD=Gray4   RatioNotC=Red   RatioVal1=0.5   RatioVal2=0.7 _
        RatioVal3=0.9   RatioVal4=1   DFillPos=Red   DFillNeg=Red   DFillRPos=Blue   DFillRNeg=Blue
 
TABLE:  "PREFERENCES - ALUMINUM DESIGN - AA-ASD 2000"
   THDesign=Envelopes   FrameType="Moment Frame"   SRatioLimit=1   MaxIter=1   LatFact=1.33333333333333   UseLatFact=No   Bridge=No
 
TABLE:  "PREFERENCES - COLD FORMED DESIGN - AISI-ASD96"
   THDesign=Envelopes   FrameType="Braced Frame"   SRatioLimit=1   MaxIter=1   OmegaBS=1.67   OmegaBUS=1.67   OmegaBLTB=1.67   OmegaVS=1.67   OmegaVNS=1.5   OmegaT=1.67   OmegaC=1.8
 
TABLE:  "PREFERENCES - CONCRETE DESIGN - ACI 318-02"
   THDesign=Envelopes   NumCurves=24   NumPoints=11   MinEccen=Yes   PatLLF=0.75   UFLimit=0.95   SeisCat=D   PhiT=0.9   PhiCTied=0.65   PhiCSpiral=0.7   PhiV=0.75   PhiVSeismic=0.6   PhiVJoint=0.85
 
TABLE:  "PREFERENCES - DIMENSIONAL"
   MergeTol=0.001   FineGrid=0.25   Nudge=0.25   SelectTol=3   SnapTol=12   SLineThick=1   PLineThick=4   MaxFont=8   MinFont=3   AutoZoom=10   ShrinkFact=70   TextFileLen=240
 
TABLE:  "PREFERENCES - STEEL DESIGN - AISC-LRFD93"
   THDesign=Envelopes   FrameType="Moment Frame"   PatLLF=0.75   SRatioLimit=0.95   MaxIter=1   PhiB=0.9   PhiC=0.85   PhiT=0.9   PhiV=0.9   PhiCA=0.9   CheckDefl=No   DLRat=120   SDLAndLLRat=120   LLRat=360   TotalRat=240   NetRat=240
 
TABLE:  "PROGRAM CONTROL"
   ProgramName=SAP2000   Version=9.0.3   CurrUnits="Kgf, m, C"   SteelCode=AISC-LRFD93   ConcCode="ACI 318-02"   AlumCode="AA-ASD 2000"   ColdCode=AISI-ASD96
 
TABLE:  "PROJECT INFORMATION"
   Item="Company Name"
   Item="Client Name"
   Item="Project Name"
   Item="Project Number"
   Item="Model Name"
   Item="Model Description"
   Item="Revision Number"
   Item="Frame Type"
   Item=Engineer
   Item=Checker
   Item=Supervisor
   Item="Issue Code"
   Item="Design Code"
 
TABLE:  "REBAR SIZES"
   RebarID=#2   Area=0.000032258   Diameter=0.00635
   RebarID=#3   Area=7.09675996154547E-05   Diameter=0.009525
   RebarID=#4   Area=1.29032001922727E-04   Diameter=0.0127
   RebarID=#5   Area=1.99999601538181E-04   Diameter=0.015875
   RebarID=#6   Area=2.83870398461819E-04   Diameter=0.01905
   RebarID=#7   Area=3.87096015381813E-04   Diameter=0.022225
   RebarID=#8   Area=5.09676413843632E-04   Diameter=0.0254
   RebarID=#9   Area=0.00064516   Diameter=2.86512005329132E-02
   RebarID=#10   Area=8.1935318769455E-04   Diameter=3.22579995155334E-02
   RebarID=#11   Area=1.00644956308365E-03   Diameter=3.58139991521835E-02
   RebarID=#14   Area=0.00145161   Diameter=4.30021989583969E-02
   RebarID=#18   Area=0.00258064   Diameter=5.73277992248535E-02
   RebarID=10M   Area=1.00000004162606E-04   Diameter=1.13000003604438E-02
   RebarID=15M   Area=2.00000008325212E-04   Diameter=1.60000002402959E-02
   RebarID=20M   Area=3.00000012487818E-04   Diameter=1.95000002928606E-02
   RebarID=25M   Area=5.00000020813031E-04   Diameter=2.52000011414055E-02
   RebarID=30M   Area=7.00000029138243E-04   Diameter=2.99000000675832E-02
   RebarID=35M   Area=1.00000004162606E-03   Diameter=3.57000012990997E-02
   RebarID=45M   Area=1.50000006243909E-03   Diameter=4.37000014192476E-02
   RebarID=55M   Area=2.50000010406515E-03   Diameter=0.056400002372922
   RebarID=6   Area=2.83000004150781E-05   Diameter=6.00000009011096E-03
   RebarID=8   Area=5.03000013308514E-05   Diameter=8.00000012014795E-03
   RebarID=10   Area=7.85000032676458E-05   Diameter=1.00000001501849E-02
   RebarID=12   Area=1.13000004703745E-04   Diameter=1.20000001802219E-02
   RebarID=14   Area=1.54000006410413E-04   Diameter=1.40000002102589E-02
   RebarID=16   Area=2.01000008366838E-04   Diameter=1.60000002402959E-02
   RebarID=20   Area=3.14000013070583E-04   Diameter=2.00000003003699E-02
   RebarID=25   Area=4.91000020438396E-04   Diameter=2.50000003754623E-02
   RebarID=26   Area=5.31000022103439E-04   Diameter=2.60000003904808E-02
   RebarID=28   Area=6.16000025641654E-04   Diameter=2.80000004205178E-02
 
TABLE:  "SOLID PROPERTY DEFINITIONS"
   SolidProp=SOLID1   Material=CONC   MatAngleA=0   MatAngleB=0   MatAngleC=0   InComp=Yes   Color=Magenta
 
TABLE:  "TENDON SECTION DEFINITIONS"
   TendonSect=TEN1   ModelOpt=Loads   PreType="Post Tension"   Material=STEEL   Specify=Area   Diameter=0.028660830844226   Area=0.00064516   Color=Yellow   AMod=1   A2Mod=1   A3Mod=1   JMod=1   I2Mod=1   I3Mod=1   MMod=1   WMod=1
 
END TABLE DATA
