File D:\LVTN\XUAT SAP\TEST\san.$2k was saved on 7/18/20 at 23:00:04
 
TABLE:  "ACTIVE DEGREES OF FREEDOM"
   UX=Yes   UY=Yes   UZ=Yes   RX=Yes   RY=Yes   RZ=Yes
 
TABLE:  "ANALYSIS OPTIONS"
   Solver=Advanced   SolverProc=Auto   Force32Bit=No   StiffCase=None   GeomMod=No
 
TABLE:  "AREA LOADS - UNIFORM"
   Area=423   LoadPat=TT   CoordSys=GLOBAL   Dir=Gravity   UnifLoad=100
   Area=424   LoadPat=TT   CoordSys=GLOBAL   Dir=Gravity   UnifLoad=100
   Area=425   LoadPat=TT   CoordSys=GLOBAL   Dir=Gravity   UnifLoad=100
   Area=426   LoadPat=TT   CoordSys=GLOBAL   Dir=Gravity   UnifLoad=100
   Area=427   LoadPat=TT   CoordSys=GLOBAL   Dir=Gravity   UnifLoad=100
   Area=428   LoadPat=TT   CoordSys=GLOBAL   Dir=Gravity   UnifLoad=100
   Area=429   LoadPat=TT   CoordSys=GLOBAL   Dir=Gravity   UnifLoad=100
   Area=430   LoadPat=TT   CoordSys=GLOBAL   Dir=Gravity   UnifLoad=100
   Area=431   LoadPat=TT   CoordSys=GLOBAL   Dir=Gravity   UnifLoad=100
   Area=432   LoadPat=TT   CoordSys=GLOBAL   Dir=Gravity   UnifLoad=100
   Area=433   LoadPat=TT   CoordSys=GLOBAL   Dir=Gravity   UnifLoad=100
   Area=434   LoadPat=TT   CoordSys=GLOBAL   Dir=Gravity   UnifLoad=100
   Area=435   LoadPat=TT   CoordSys=GLOBAL   Dir=Gravity   UnifLoad=100
   Area=436   LoadPat=TT   CoordSys=GLOBAL   Dir=Gravity   UnifLoad=100
   Area=437   LoadPat=TT   CoordSys=GLOBAL   Dir=Gravity   UnifLoad=100
   Area=438   LoadPat=TT   CoordSys=GLOBAL   Dir=Gravity   UnifLoad=100
   Area=439   LoadPat=TT   CoordSys=GLOBAL   Dir=Gravity   UnifLoad=100
   Area=440   LoadPat=TT   CoordSys=GLOBAL   Dir=Gravity   UnifLoad=100
   Area=441   LoadPat=TT   CoordSys=GLOBAL   Dir=Gravity   UnifLoad=100
   Area=442   LoadPat=TT   CoordSys=GLOBAL   Dir=Gravity   UnifLoad=100
 
TABLE:  "AREA SECTION ASSIGNMENTS"
   Area=423   Section=ASEC1   MatProp=Default
   Area=424   Section=ASEC1   MatProp=Default
   Area=425   Section=ASEC1   MatProp=Default
   Area=426   Section=ASEC1   MatProp=Default
   Area=427   Section=ASEC1   MatProp=Default
   Area=428   Section=ASEC1   MatProp=Default
   Area=429   Section=ASEC1   MatProp=Default
   Area=430   Section=ASEC1   MatProp=Default
   Area=431   Section=ASEC1   MatProp=Default
   Area=432   Section=ASEC1   MatProp=Default
   Area=433   Section=ASEC1   MatProp=Default
   Area=434   Section=ASEC1   MatProp=Default
   Area=435   Section=ASEC1   MatProp=Default
   Area=436   Section=ASEC1   MatProp=Default
   Area=437   Section=ASEC1   MatProp=Default
   Area=438   Section=ASEC1   MatProp=Default
   Area=439   Section=ASEC1   MatProp=Default
   Area=440   Section=ASEC1   MatProp=Default
   Area=441   Section=ASEC1   MatProp=Default
   Area=442   Section=ASEC1   MatProp=Default
 
TABLE:  "AREA SECTION PROPERTIES"
   Section=ASEC1   Material=A992Fy50   MatAngle=0   AreaType=Shell   Type=Shell-Thin   DrillDOF=Yes   Thickness=0,25   BendThick=0,25   Color=Yellow   F11Mod=1   F22Mod=1   F12Mod=1   M11Mod=1   M22Mod=1   M12Mod=1   V13Mod=1   V23Mod=1 _
        MMod=1   WMod=1   Notes="Added 18/07/2020 8:59:00 CH"
 
TABLE:  "AREA SECTION PROPERTY DESIGN PARAMETERS"
   Section=ASEC1   RebarMat=None   RebarOpt=Default
 
TABLE:  "AUTO WAVE 3 - WAVE CHARACTERISTICS - GENERAL"
   WaveChar=Default   WaveType="From Theory"   KinFactor=1   SWaterDepth=45   WaveHeight=18   WavePeriod=12   WaveTheory=Linear
 
TABLE:  "BRIDGE DESIGN PREFERENCES - AASHTOLRFD07"
   HingeOpt="Auto: AASHTO/Caltrans Hinge"
 
TABLE:  "BRIDGE PREFERENCES"
   NorthAngle=90   MaxDiscCurv=1
 
TABLE:  "CASE - MODAL 1 - GENERAL"
   Case=MODAL   ModeType=Eigen   MaxNumModes=12   MinNumModes=1   EigenShift=0   EigenCutoff=0   EigenTol=0,000000001   AutoShift=Yes
 
TABLE:  "CASE - STATIC 1 - LOAD ASSIGNMENTS"
   Case=DEAD   LoadType="Load pattern"   LoadName=DEAD   LoadSF=1
   Case=TT   LoadType="Load pattern"   LoadName=TT   LoadSF=1
   Case=HT   LoadType="Load pattern"   LoadName=HT   LoadSF=1
 
TABLE:  "COMBINATION DEFINITIONS"
   ComboName=COMB1   ComboType="Linear Add"   AutoDesign=No   CaseName=HT   ScaleFactor=1   SteelDesign=None   ConcDesign=None   AlumDesign=None   ColdDesign=None
   ComboName=COMB1   CaseName=TT   ScaleFactor=1
 
TABLE:  "CONNECTIVITY - AREA"
   Area=423   Joint1=2   Joint2=449   Joint3=450   Joint4=451
   Area=424   Joint1=451   Joint2=450   Joint3=452   Joint4=453
   Area=425   Joint1=453   Joint2=452   Joint3=454   Joint4=455
   Area=426   Joint1=455   Joint2=454   Joint3=456   Joint4=457
   Area=427   Joint1=457   Joint2=456   Joint3=458   Joint4=7
   Area=428   Joint1=449   Joint2=459   Joint3=460   Joint4=450
   Area=429   Joint1=450   Joint2=460   Joint3=461   Joint4=452
   Area=430   Joint1=452   Joint2=461   Joint3=462   Joint4=454
   Area=431   Joint1=454   Joint2=462   Joint3=463   Joint4=456
   Area=432   Joint1=456   Joint2=463   Joint3=464   Joint4=458
   Area=433   Joint1=459   Joint2=465   Joint3=466   Joint4=460
   Area=434   Joint1=460   Joint2=466   Joint3=467   Joint4=461
   Area=435   Joint1=461   Joint2=467   Joint3=468   Joint4=462
   Area=436   Joint1=462   Joint2=468   Joint3=469   Joint4=463
   Area=437   Joint1=463   Joint2=469   Joint3=470   Joint4=464
   Area=438   Joint1=465   Joint2=448   Joint3=471   Joint4=466
   Area=439   Joint1=466   Joint2=471   Joint3=472   Joint4=467
   Area=440   Joint1=467   Joint2=472   Joint3=473   Joint4=468
   Area=441   Joint1=468   Joint2=473   Joint3=474   Joint4=469
   Area=442   Joint1=469   Joint2=474   Joint3=447   Joint4=470
 
TABLE:  "CONNECTIVITY - FRAME"
   Frame=12   JointI=7   JointJ=457   IsCurved=No
   Frame=13   JointI=457   JointJ=455   IsCurved=No
   Frame=14   JointI=455   JointJ=453   IsCurved=No
   Frame=15   JointI=453   JointJ=451   IsCurved=No
   Frame=16   JointI=451   JointJ=2   IsCurved=No
   Frame=17   JointI=7   JointJ=458   IsCurved=No
   Frame=18   JointI=458   JointJ=464   IsCurved=No
   Frame=19   JointI=464   JointJ=470   IsCurved=No
   Frame=20   JointI=470   JointJ=447   IsCurved=No
   Frame=21   JointI=447   JointJ=474   IsCurved=No
   Frame=22   JointI=474   JointJ=473   IsCurved=No
   Frame=23   JointI=473   JointJ=472   IsCurved=No
   Frame=24   JointI=472   JointJ=471   IsCurved=No
   Frame=25   JointI=471   JointJ=448   IsCurved=No
   Frame=26   JointI=448   JointJ=465   IsCurved=No
   Frame=27   JointI=465   JointJ=459   IsCurved=No
   Frame=28   JointI=459   JointJ=449   IsCurved=No
   Frame=29   JointI=449   JointJ=2   IsCurved=No
 
TABLE:  "COORDINATE SYSTEMS"
   Name=GLOBAL   Type=Cartesian   X=0   Y=0   Z=0   AboutZ=0   AboutY=0   AboutX=0
 
TABLE:  "DATABASE DOCUMENTATION"
 
TABLE:  "DATABASE FORMAT TYPES"
   UnitsCurr=Yes   OverrideE=No
 
TABLE:  "FRAME AUTO MESH ASSIGNMENTS"
   Frame=12   AutoMesh=Yes   AtJoints=Yes   AtFrames=No   NumSegments=0   MaxLength=0   MaxDegrees=0
   Frame=13   AutoMesh=Yes   AtJoints=Yes   AtFrames=No   NumSegments=0   MaxLength=0   MaxDegrees=0
   Frame=14   AutoMesh=Yes   AtJoints=Yes   AtFrames=No   NumSegments=0   MaxLength=0   MaxDegrees=0
   Frame=15   AutoMesh=Yes   AtJoints=Yes   AtFrames=No   NumSegments=0   MaxLength=0   MaxDegrees=0
   Frame=16   AutoMesh=Yes   AtJoints=Yes   AtFrames=No   NumSegments=0   MaxLength=0   MaxDegrees=0
   Frame=17   AutoMesh=Yes   AtJoints=Yes   AtFrames=No   NumSegments=0   MaxLength=0   MaxDegrees=0
   Frame=18   AutoMesh=Yes   AtJoints=Yes   AtFrames=No   NumSegments=0   MaxLength=0   MaxDegrees=0
   Frame=19   AutoMesh=Yes   AtJoints=Yes   AtFrames=No   NumSegments=0   MaxLength=0   MaxDegrees=0
   Frame=20   AutoMesh=Yes   AtJoints=Yes   AtFrames=No   NumSegments=0   MaxLength=0   MaxDegrees=0
   Frame=21   AutoMesh=Yes   AtJoints=Yes   AtFrames=No   NumSegments=0   MaxLength=0   MaxDegrees=0
   Frame=22   AutoMesh=Yes   AtJoints=Yes   AtFrames=No   NumSegments=0   MaxLength=0   MaxDegrees=0
   Frame=23   AutoMesh=Yes   AtJoints=Yes   AtFrames=No   NumSegments=0   MaxLength=0   MaxDegrees=0
   Frame=24   AutoMesh=Yes   AtJoints=Yes   AtFrames=No   NumSegments=0   MaxLength=0   MaxDegrees=0
   Frame=25   AutoMesh=Yes   AtJoints=Yes   AtFrames=No   NumSegments=0   MaxLength=0   MaxDegrees=0
   Frame=26   AutoMesh=Yes   AtJoints=Yes   AtFrames=No   NumSegments=0   MaxLength=0   MaxDegrees=0
   Frame=27   AutoMesh=Yes   AtJoints=Yes   AtFrames=No   NumSegments=0   MaxLength=0   MaxDegrees=0
   Frame=28   AutoMesh=Yes   AtJoints=Yes   AtFrames=No   NumSegments=0   MaxLength=0   MaxDegrees=0
   Frame=29   AutoMesh=Yes   AtJoints=Yes   AtFrames=No   NumSegments=0   MaxLength=0   MaxDegrees=0
 
TABLE:  "FRAME DESIGN PROCEDURES"
   Frame=12   DesignProc="From Material"
   Frame=13   DesignProc="From Material"
   Frame=14   DesignProc="From Material"
   Frame=15   DesignProc="From Material"
   Frame=16   DesignProc="From Material"
   Frame=17   DesignProc="From Material"
   Frame=18   DesignProc="From Material"
   Frame=19   DesignProc="From Material"
   Frame=20   DesignProc="From Material"
   Frame=21   DesignProc="From Material"
   Frame=22   DesignProc="From Material"
   Frame=23   DesignProc="From Material"
   Frame=24   DesignProc="From Material"
   Frame=25   DesignProc="From Material"
   Frame=26   DesignProc="From Material"
   Frame=27   DesignProc="From Material"
   Frame=28   DesignProc="From Material"
   Frame=29   DesignProc="From Material"
 
TABLE:  "FRAME OUTPUT STATION ASSIGNMENTS"
   Frame=12   StationType=MaxStaSpcg   MaxStaSpcg=0,5   AddAtElmInt=Yes   AddAtPtLoad=Yes
   Frame=13   StationType=MaxStaSpcg   MaxStaSpcg=0,5   AddAtElmInt=Yes   AddAtPtLoad=Yes
   Frame=14   StationType=MaxStaSpcg   MaxStaSpcg=0,5   AddAtElmInt=Yes   AddAtPtLoad=Yes
   Frame=15   StationType=MaxStaSpcg   MaxStaSpcg=0,5   AddAtElmInt=Yes   AddAtPtLoad=Yes
   Frame=16   StationType=MaxStaSpcg   MaxStaSpcg=0,5   AddAtElmInt=Yes   AddAtPtLoad=Yes
   Frame=17   StationType=MaxStaSpcg   MaxStaSpcg=0,5   AddAtElmInt=Yes   AddAtPtLoad=Yes
   Frame=18   StationType=MaxStaSpcg   MaxStaSpcg=0,5   AddAtElmInt=Yes   AddAtPtLoad=Yes
   Frame=19   StationType=MaxStaSpcg   MaxStaSpcg=0,5   AddAtElmInt=Yes   AddAtPtLoad=Yes
   Frame=20   StationType=MaxStaSpcg   MaxStaSpcg=0,5   AddAtElmInt=Yes   AddAtPtLoad=Yes
   Frame=21   StationType=MaxStaSpcg   MaxStaSpcg=0,5   AddAtElmInt=Yes   AddAtPtLoad=Yes
   Frame=22   StationType=MaxStaSpcg   MaxStaSpcg=0,5   AddAtElmInt=Yes   AddAtPtLoad=Yes
   Frame=23   StationType=MaxStaSpcg   MaxStaSpcg=0,5   AddAtElmInt=Yes   AddAtPtLoad=Yes
   Frame=24   StationType=MaxStaSpcg   MaxStaSpcg=0,5   AddAtElmInt=Yes   AddAtPtLoad=Yes
   Frame=25   StationType=MaxStaSpcg   MaxStaSpcg=0,5   AddAtElmInt=Yes   AddAtPtLoad=Yes
   Frame=26   StationType=MaxStaSpcg   MaxStaSpcg=0,5   AddAtElmInt=Yes   AddAtPtLoad=Yes
   Frame=27   StationType=MaxStaSpcg   MaxStaSpcg=0,5   AddAtElmInt=Yes   AddAtPtLoad=Yes
   Frame=28   StationType=MaxStaSpcg   MaxStaSpcg=0,5   AddAtElmInt=Yes   AddAtPtLoad=Yes
   Frame=29   StationType=MaxStaSpcg   MaxStaSpcg=0,5   AddAtElmInt=Yes   AddAtPtLoad=Yes
 
TABLE:  "FRAME SECTION ASSIGNMENTS"
   Frame=12   AutoSelect=N.A.   AnalSect=D20x30   MatProp=Default
   Frame=13   AutoSelect=N.A.   AnalSect=D20x30   MatProp=Default
   Frame=14   AutoSelect=N.A.   AnalSect=D20x30   MatProp=Default
   Frame=15   AutoSelect=N.A.   AnalSect=D20x30   MatProp=Default
   Frame=16   AutoSelect=N.A.   AnalSect=D20x30   MatProp=Default
   Frame=17   AutoSelect=N.A.   AnalSect=D20x30   MatProp=Default
   Frame=18   AutoSelect=N.A.   AnalSect=D20x30   MatProp=Default
   Frame=19   AutoSelect=N.A.   AnalSect=D20x30   MatProp=Default
   Frame=20   AutoSelect=N.A.   AnalSect=D20x30   MatProp=Default
   Frame=21   AutoSelect=N.A.   AnalSect=D20x30   MatProp=Default
   Frame=22   AutoSelect=N.A.   AnalSect=D20x30   MatProp=Default
   Frame=23   AutoSelect=N.A.   AnalSect=D20x30   MatProp=Default
   Frame=24   AutoSelect=N.A.   AnalSect=D20x30   MatProp=Default
   Frame=25   AutoSelect=N.A.   AnalSect=D20x30   MatProp=Default
   Frame=26   AutoSelect=N.A.   AnalSect=D20x30   MatProp=Default
   Frame=27   AutoSelect=N.A.   AnalSect=D20x30   MatProp=Default
   Frame=28   AutoSelect=N.A.   AnalSect=D20x30   MatProp=Default
   Frame=29   AutoSelect=N.A.   AnalSect=D20x30   MatProp=Default
 
TABLE:  "FRAME SECTION PROPERTIES 01 - GENERAL"
   SectionName=D20x30   Material=4000Psi   Shape=Rectangular   t3=0,3   t2=0,2   Area=0,06   TorsConst=4,69530864197531E-04   I33=0,00045   I22=0,0002   AS2=0,05   AS3=0,05   S33=0,003   S22=0,002   Z33=0,0045   Z22=0,003 _
        R33=8,66025403784439E-02   R22=5,77350269189626E-02   Color=Gray8Dark   FromFile=No   AMod=1   A2Mod=1   A3Mod=1   JMod=1   I2Mod=1   I3Mod=1   MMod=1   WMod=1   Notes="Added 18/07/2020 9:52:33 CH"
   SectionName=FSEC1   Material=A992Fy50   Shape="I/Wide Flange"   t3=0,3048   t2=0,127   tf=0,009652   tw=0,00635   t2b=0,127   tfb=0,009652   Area=0,0042645076   TorsConst=9,65117678053953E-08   I33=6,5724174702235E-05 _
        I22=3,30125717301008E-06   AS2=0,00193548   AS3=2,04300666666667E-03   S33=4,3126098885981E-04   S22=5,19883019371667E-05   Z33=4,911874950424E-04   Z22=0,000080716532115   R33=0,124144683132414   R22=2,78230817990979E-02 _
        Color=Magenta   FromFile=No   AMod=1   A2Mod=1   A3Mod=1   JMod=1   I2Mod=1   I3Mod=1   MMod=1   WMod=1   Notes="Added 18/07/2020 8:58:02 CH"
 
TABLE:  "FRAME SECTION PROPERTIES 02 - CONCRETE COLUMN"
   SectionName=D20x30   RebarMatL=A615Gr60   RebarMatC=A615Gr60   ReinfConfig=Rectangular   LatReinf=Ties   Cover=0,04   NumBars3Dir=3   NumBars2Dir=3   BarSizeL=#9   BarSizeC=#4   SpacingC=0,15   NumCBars2=3   NumCBars3=3   ReinfType=Design
 
TABLE:  "FUNCTION - PLOT FUNCTIONS"
   PlotFunc="Input Energy"   Type=Energy   Component=Input   Mode=All
 
TABLE:  "FUNCTION - POWER SPECTRAL DENSITY - USER"
   Name=UNIFPSD   Frequency=0   Value=1
   Name=UNIFPSD   Frequency=1   Value=1
 
TABLE:  "FUNCTION - RESPONSE SPECTRUM - USER"
   Name=UNIFRS   Period=0   Accel=1   FuncDamp=0,05
   Name=UNIFRS   Period=1   Accel=1
 
TABLE:  "FUNCTION - STEADY STATE - USER"
   Name=UNIFSS   Frequency=0   Value=1
   Name=UNIFSS   Frequency=1   Value=1
 
TABLE:  "FUNCTION - TIME HISTORY - USER"
   Name=RAMPTH   Time=0   Value=0
   Name=RAMPTH   Time=1   Value=1
   Name=RAMPTH   Time=4   Value=1
   Name=UNIFTH   Time=0   Value=1
   Name=UNIFTH   Time=1   Value=1
 
TABLE:  "GRID LINES"
   CoordSys=GLOBAL   AxisDir=X   GridID=A   XRYZCoord=0   LineType=Primary   LineColor=Gray8Dark   Visible=Yes   BubbleLoc=End   AllVisible=Yes   BubbleSize=1
   CoordSys=GLOBAL   AxisDir=X   GridID=B   XRYZCoord=4   LineType=Primary   LineColor=Gray8Dark   Visible=Yes   BubbleLoc=Start
   CoordSys=GLOBAL   AxisDir=Y   GridID=1   XRYZCoord=0   LineType=Primary   LineColor=Gray8Dark   Visible=Yes   BubbleLoc=Start
   CoordSys=GLOBAL   AxisDir=Y   GridID=2   XRYZCoord=5   LineType=Primary   LineColor=Gray8Dark   Visible=Yes   BubbleLoc=Start
   CoordSys=GLOBAL   AxisDir=Z   GridID=Z1   XRYZCoord=0   LineType=Primary   LineColor=Gray8Dark   Visible=Yes   BubbleLoc=End
   CoordSys=GLOBAL   AxisDir=Z   GridID=Z2   XRYZCoord=3   LineType=Primary   LineColor=Gray8Dark   Visible=Yes   BubbleLoc=End
 
TABLE:  "GROUPS 1 - DEFINITIONS"
   GroupName=ALL   Selection=Yes   SectionCut=Yes   Steel=Yes   Concrete=Yes   Aluminum=Yes   ColdFormed=Yes   Stage=Yes   Bridge=Yes   AutoSeismic=No   AutoWind=No   SelDesSteel=No   SelDesAlum=No   SelDesCold=No   MassWeight=Yes   Color=Red
 
TABLE:  "JOINT COORDINATES"
   Joint=2   CoordSys=GLOBAL   CoordType=Cartesian   XorR=0   Y=0   Z=3   SpecialJt=No
   Joint=7   CoordSys=GLOBAL   CoordType=Cartesian   XorR=0   Y=5   Z=3   SpecialJt=No
   Joint=447   CoordSys=GLOBAL   CoordType=Cartesian   XorR=4   Y=5   Z=3   SpecialJt=No
   Joint=448   CoordSys=GLOBAL   CoordType=Cartesian   XorR=4   Y=0   Z=3   SpecialJt=No
   Joint=449   CoordSys=GLOBAL   CoordType=Cartesian   XorR=1   Y=0   Z=3   SpecialJt=No
   Joint=450   CoordSys=GLOBAL   CoordType=Cartesian   XorR=1   Y=1   Z=3   SpecialJt=No
   Joint=451   CoordSys=GLOBAL   CoordType=Cartesian   XorR=0   Y=1   Z=3   SpecialJt=No
   Joint=452   CoordSys=GLOBAL   CoordType=Cartesian   XorR=1   Y=2   Z=3   SpecialJt=No
   Joint=453   CoordSys=GLOBAL   CoordType=Cartesian   XorR=0   Y=2   Z=3   SpecialJt=No
   Joint=454   CoordSys=GLOBAL   CoordType=Cartesian   XorR=1   Y=3   Z=3   SpecialJt=No
   Joint=455   CoordSys=GLOBAL   CoordType=Cartesian   XorR=0   Y=3   Z=3   SpecialJt=No
   Joint=456   CoordSys=GLOBAL   CoordType=Cartesian   XorR=1   Y=4   Z=3   SpecialJt=No
   Joint=457   CoordSys=GLOBAL   CoordType=Cartesian   XorR=0   Y=4   Z=3   SpecialJt=No
   Joint=458   CoordSys=GLOBAL   CoordType=Cartesian   XorR=1   Y=5   Z=3   SpecialJt=No
   Joint=459   CoordSys=GLOBAL   CoordType=Cartesian   XorR=2   Y=0   Z=3   SpecialJt=No
   Joint=460   CoordSys=GLOBAL   CoordType=Cartesian   XorR=2   Y=1   Z=3   SpecialJt=No
   Joint=461   CoordSys=GLOBAL   CoordType=Cartesian   XorR=2   Y=2   Z=3   SpecialJt=No
   Joint=462   CoordSys=GLOBAL   CoordType=Cartesian   XorR=2   Y=3   Z=3   SpecialJt=No
   Joint=463   CoordSys=GLOBAL   CoordType=Cartesian   XorR=2   Y=4   Z=3   SpecialJt=No
   Joint=464   CoordSys=GLOBAL   CoordType=Cartesian   XorR=2   Y=5   Z=3   SpecialJt=No
# ... 10 like lines cut
 
TABLE:  "JOINT PATTERN DEFINITIONS"
   Pattern=Default
 
TABLE:  "JOINT RESTRAINT ASSIGNMENTS"
   Joint=2   U1=Yes   U2=Yes   U3=Yes   R1=Yes   R2=Yes   R3=Yes
   Joint=7   U1=Yes   U2=Yes   U3=Yes   R1=Yes   R2=Yes   R3=Yes
   Joint=447   U1=Yes   U2=Yes   U3=Yes   R1=Yes   R2=Yes   R3=Yes
   Joint=448   U1=Yes   U2=Yes   U3=Yes   R1=Yes   R2=Yes   R3=Yes
 
TABLE:  "LOAD CASE DEFINITIONS"
   Case=DEAD   Type=LinStatic   InitialCond=Zero   DesTypeOpt="Prog Det"   DesignType=DEAD   AutoType=None   RunCase=Yes
   Case=MODAL   Type=LinModal   InitialCond=Zero   DesTypeOpt="Prog Det"   DesignType=OTHER   AutoType=None   RunCase=No
   Case=TT   Type=LinStatic   InitialCond=Zero   DesTypeOpt="Prog Det"   DesignType=DEAD   AutoType=None   RunCase=Yes
   Case=HT   Type=LinStatic   InitialCond=Zero   DesTypeOpt="Prog Det"   DesignType=LIVE   AutoType=None   RunCase=Yes
 
TABLE:  "LOAD PATTERN DEFINITIONS"
   LoadPat=DEAD   DesignType=DEAD   SelfWtMult=0
   LoadPat=TT   DesignType=DEAD   SelfWtMult=0
   LoadPat=HT   DesignType=LIVE   SelfWtMult=0
 
TABLE:  "MASSES 1 - MASS SOURCE"
   MassFrom=Elements
 
TABLE:  "MATERIAL PROPERTIES 01 - GENERAL"
   Material=4000Psi   Type=Concrete   SymType=Isotropic   TempDepend=No   Color=White   Notes="Normalweight f'c = 4 ksi added 18/07/2020 8:56:50 CH"
   Material=A615Gr60   Type=Rebar   SymType=Uniaxial   TempDepend=No   Color=White   Notes="ASTM A615 Grade 60 added 18/07/2020 9:52:33 CH"
   Material=A992Fy50   Type=Steel   SymType=Isotropic   TempDepend=No   Color=Yellow   Notes="ASTM A992 Fy=50 ksi added 18/07/2020 8:56:50 CH"
 
TABLE:  "MATERIAL PROPERTIES 02 - BASIC MECHANICAL PROPERTIES"
   Material=4000Psi   UnitWeight=23,563121614979   UnitMass=2,40276960611018   E1=24855578,2847654   G12=10356490,9519856   U12=0,2   A1=0,0000099
   Material=A615Gr60   UnitWeight=76,9728639422648   UnitMass=7,84904737995992   E1=199947978,795958   A1=0,0000117
   Material=A992Fy50   UnitWeight=76,9728639422648   UnitMass=7,84904737995992   E1=199947978,795958   G12=76903068,767676   U12=0,3   A1=0,0000117
 
TABLE:  "MATERIAL PROPERTIES 03A - STEEL DATA"
   Material=A992Fy50   Fy=344737,894475789   Fu=448159,262818526   EffFy=379211,683923368   EffFu=492975,189100378   SSCurveOpt=Simple   SSHysType=Kinematic   SHard=0,015   SMax=0,11   SRup=0,17   FinalSlope=-0,1
 
TABLE:  "MATERIAL PROPERTIES 03B - CONCRETE DATA"
   Material=4000Psi   Fc=27579,0315580631   LtWtConc=No   SSCurveOpt=Mander   SSHysType=Takeda   SFc=2,21914221766202E-03   SCap=0,005   FinalSlope=-0,1   FAngle=0   DAngle=0
 
TABLE:  "MATERIAL PROPERTIES 03E - REBAR DATA"
   Material=A615Gr60   Fy=413685,473370947   Fu=620528,21005642   EffFy=455054,020708041   EffFu=682581,031062062   SSCurveOpt=Simple   SSHysType=Kinematic   SHard=0,01   SCap=0,09   FinalSlope=-0,1   UseCTDef=No
 
TABLE:  "MATERIAL PROPERTIES 06 - DAMPING PARAMETERS"
   Material=4000Psi   ModalRatio=0   VisMass=0   VisStiff=0   HysMass=0   HysStiff=0
   Material=A615Gr60   ModalRatio=0   VisMass=0   VisStiff=0   HysMass=0   HysStiff=0
   Material=A992Fy50   ModalRatio=0   VisMass=0   VisStiff=0   HysMass=0   HysStiff=0
 
TABLE:  "OPTIONS - COLORS - DISPLAY"
   DeviceType=Screen   Points=Yellow   LinesFrame=Yellow   LinesFrmExt=Yellow   LinesCable=Green   LinesTendon=Green   SpringLinks=Green   Restraints=Green   Releases=Green   Axes=Cyan   Text=Green   ShadowLines=Gray8Dark _
        GuideLines=Gray8Dark   Highlight=Red   Selection=White   AreaFillBot=Red   AreaFillTop=16744703   AreaFillSd=Red   AreaEdge=DarkRed   SolidF1=Red   SolidF2=Blue   SolidF3=Green   SolidF4=Yellow   SolidF5=White   SolidF6=Cyan _
        SolidEdge=DarkRed   Floor=Gray4   Background=Black   BGLowLeft=Black   BGLowRight=Black   BGUpRight=Black   Darkness=0,5
   DeviceType=Printer   Points=Gray8Dark   LinesFrame=Black   LinesFrmExt=Gray4   LinesCable=Black   LinesTendon=Black   SpringLinks=Gray8Dark   Restraints=Gray8Dark   Releases=Gray4   Axes=Black   Text=Black   ShadowLines=Gray4 _
        GuideLines=Gray4   Highlight=Black   Selection=Black   AreaFillBot=Gray4   AreaFillTop=Gray8Dark   AreaFillSd=Gray4   AreaEdge=Black   SolidF1=Gray1Light   SolidF2=Gray2   SolidF3=Gray3   SolidF4=Gray4   SolidF5=Gray5 _
        SolidF6=Gray6   SolidEdge=Black   Floor=Gray4   Background=White   BGLowLeft=White   BGLowRight=White   BGUpRight=White   Darkness=0,5
   DeviceType="Color Printer"   Points=Black   LinesFrame=7303023   LinesFrmExt=White   LinesCable=Green   LinesTendon=Green   SpringLinks=Green   Restraints=9408399   Releases=Green   Axes=Cyan   Text=Black   ShadowLines=Gray8Dark _
        GuideLines=10461087   Highlight=Red   Selection=10504778   AreaFillBot=16634568   AreaFillTop=14277119   AreaFillSd=16634568   AreaEdge=7303023   SolidF1=10122991   SolidF2=16756912   SolidF3=11599795   SolidF4=12713983 _
        SolidF5=White   SolidF6=16777128   SolidEdge=7303023   Floor=13619151   Background=White   BGLowLeft=White   BGLowRight=14671839   BGUpRight=White   Darkness=0,5
 
TABLE:  "OPTIONS - COLORS - OUTPUT"
   DeviceType=Screen   Contour1=13107400   Contour2=6553828   Contour3=Red   Contour4=16639   Contour5=Orange   Contour6=43775   Contour7=54527   Contour8=Yellow   Contour9=65408   Contour10=Green   Contour11=8453888   Contour12=Cyan _
        Contour13=16755200   Contour14=16733440   Contour15=Blue   Transpare=0,5   Ratio1=Cyan   Ratio2=Green   Ratio3=Yellow   Ratio4=Orange   Ratio5=Red   RatioNotD=Gray4   RatioNotC=Red   RatioVal1=0,5   RatioVal2=0,7   RatioVal3=0,9 _
        RatioVal4=1   DFillPos=Yellow   DFillNeg=Red   DFillRPos=Blue   DFillRNeg=Blue
   DeviceType=Printer   Contour1=Black   Contour2=3158064   Contour3=4210752   Contour4=5263440   Contour5=6316128   Contour6=7368816   Contour7=Gray8Dark   Contour8=Gray7   Contour9=Gray6   Contour10=Gray5   Contour11=Gray4 _
        Contour12=Gray3   Contour13=Gray2   Contour14=Gray1Light   Contour15=White   Transpare=0   Ratio1=Gray2   Ratio2=Gray4   Ratio3=Gray8Dark   Ratio4=4210752   Ratio5=Black   RatioNotD=Gray4   RatioNotC=Black   RatioVal1=0,5 _
        RatioVal2=0,7   RatioVal3=0,9   RatioVal4=1   DFillPos=Gray8Dark   DFillNeg=Gray8Dark   DFillRPos=4210752   DFillRNeg=4210752
   DeviceType="Color Printer"   Contour1=13107400   Contour2=6553828   Contour3=Red   Contour4=16639   Contour5=Orange   Contour6=43775   Contour7=54527   Contour8=Yellow   Contour9=65408   Contour10=Green   Contour11=8453888 _
        Contour12=Cyan   Contour13=16755200   Contour14=16733440   Contour15=Blue   Transpare=0,5   Ratio1=Cyan   Ratio2=Green   Ratio3=Yellow   Ratio4=Orange   Ratio5=Red   RatioNotD=Gray4   RatioNotC=Red   RatioVal1=0,5   RatioVal2=0,7 _
        RatioVal3=0,9   RatioVal4=1   DFillPos=Red   DFillNeg=Red   DFillRPos=Blue   DFillRNeg=Blue
 
TABLE:  "PREFERENCES - ALUMINUM DESIGN - AA-ASD 2000"
   THDesign=Envelopes   FrameType="Moment Frame"   SRatioLimit=1   MaxIter=1   LatFact=1,33333333333333   UseLatFact=No   Bridge=No
 
TABLE:  "PREFERENCES - COLD FORMED DESIGN - AISI-ASD96"
   THDesign=Envelopes   FrameType="Braced Frame"   SRatioLimit=1   MaxIter=1   OmegaBS=1,67   OmegaBUS=1,67   OmegaBLTB=1,67   OmegaVS=1,67   OmegaVNS=1,5   OmegaT=1,67   OmegaC=1,8
 
TABLE:  "PREFERENCES - CONCRETE DESIGN - ACI 318-05/IBC2003"
   THDesign=Envelopes   NumCurves=24   NumPoints=11   MinEccen=Yes   PatLLF=0,75   UFLimit=0,95   SeisCat=D   PhiT=0,9   PhiCTied=0,65   PhiCSpiral=0,7   PhiV=0,75   PhiVSeismic=0,6   PhiVJoint=0,85
 
TABLE:  "PREFERENCES - DIMENSIONAL"
   MergeTol=0,001   FineGrid=0,25   Nudge=0,25   SelectTol=3   SnapTol=12   SLineThick=1   PLineThick=4   MaxFont=8   MinFont=3   AutoZoom=10   ShrinkFact=70   TextFileLen=240
 
TABLE:  "PREFERENCES - STEEL DESIGN - AISC-LRFD93"
   THDesign=Envelopes   FrameType="Moment Frame"   PatLLF=0,75   SRatioLimit=0,95   MaxIter=1   PhiB=0,9   PhiC=0,85   PhiT=0,9   PhiV=0,9   PhiCA=0,9   CheckDefl=No   DLRat=120   SDLAndLLRat=120   LLRat=360   TotalRat=240   NetRat=240
 
TABLE:  "PROGRAM CONTROL"
   ProgramName=SAP2000   Version=14.2.2   CurrUnits="KN, m, C"   SteelCode=AISC-LRFD93   ConcCode="ACI 318-05/IBC2003"   AlumCode="AA-ASD 2000"   ColdCode=AISI-ASD96   BridgeCode="AASHTO LRFD 2007"   RegenHinge=Yes
 
TABLE:  "PROJECT INFORMATION"
   Item="Company Name"
   Item="Client Name"
   Item="Project Name"
   Item="Project Number"
   Item="Model Name"
   Item="Model Description"
   Item="Revision Number"
   Item="Frame Type"
   Item=Engineer
   Item=Checker
   Item=Supervisor
   Item="Issue Code"
   Item="Design Code"
 
TABLE:  "REBAR SIZES"
   RebarID=#2   Area=0,000032258   Diameter=0,00635
   RebarID=#3   Area=7,09675996154547E-05   Diameter=0,009525
   RebarID=#4   Area=1,29032001922727E-04   Diameter=0,0127
   RebarID=#5   Area=1,99999601538181E-04   Diameter=0,015875
   RebarID=#6   Area=2,83870398461819E-04   Diameter=0,01905
   RebarID=#7   Area=3,87096015381813E-04   Diameter=0,022225
   RebarID=#8   Area=5,09676413843632E-04   Diameter=0,0254
   RebarID=#9   Area=0,00064516   Diameter=2,86512005329132E-02
   RebarID=#10   Area=8,1935318769455E-04   Diameter=3,22579995155334E-02
   RebarID=#11   Area=1,00644956308365E-03   Diameter=3,58139991521835E-02
   RebarID=#14   Area=0,00145161   Diameter=4,30021989583969E-02
   RebarID=#18   Area=0,00258064   Diameter=5,73277992248535E-02
   RebarID=10M   Area=1,00000004162606E-04   Diameter=1,13000003604438E-02
   RebarID=15M   Area=2,00000008325212E-04   Diameter=1,60000002402959E-02
   RebarID=20M   Area=3,00000012487818E-04   Diameter=1,95000002928606E-02
   RebarID=25M   Area=5,00000020813031E-04   Diameter=2,52000011414055E-02
   RebarID=30M   Area=7,00000029138243E-04   Diameter=2,99000000675832E-02
   RebarID=35M   Area=1,00000004162606E-03   Diameter=3,57000012990997E-02
   RebarID=45M   Area=1,50000006243909E-03   Diameter=4,37000014192476E-02
   RebarID=55M   Area=2,50000010406515E-03   Diameter=0,056400002372922
   RebarID=6d   Area=2,83000004150781E-05   Diameter=6,00000009011096E-03
   RebarID=8d   Area=5,03000013308514E-05   Diameter=8,00000012014795E-03
   RebarID=10d   Area=7,85000032676458E-05   Diameter=1,00000001501849E-02
   RebarID=12d   Area=1,13000004703745E-04   Diameter=1,20000001802219E-02
   RebarID=14d   Area=1,54000006410413E-04   Diameter=1,40000002102589E-02
   RebarID=16d   Area=2,01000008366838E-04   Diameter=1,60000002402959E-02
   RebarID=20d   Area=3,14000013070583E-04   Diameter=2,00000003003699E-02
   RebarID=25d   Area=4,91000020438396E-04   Diameter=2,50000003754623E-02
   RebarID=26d   Area=5,31000022103439E-04   Diameter=2,60000003904808E-02
   RebarID=28d   Area=6,16000025641654E-04   Diameter=2,80000004205178E-02
   RebarID=N12   Area=1,13000004703745E-04   Diameter=1,20000001802219E-02
   RebarID=N16   Area=2,01000008366838E-04   Diameter=1,60000002402959E-02
   RebarID=N20   Area=3,14000013070583E-04   Diameter=2,00000003003699E-02
   RebarID=N24   Area=4,5200001881498E-04   Diameter=2,40000003604438E-02
   RebarID=N28   Area=6,16000025641654E-04   Diameter=2,80000004205178E-02
   RebarID=N32   Area=8,04000033467353E-04   Diameter=3,20000004805918E-02
   RebarID=N36   Area=1,02000004245858E-03   Diameter=3,60000005406658E-02
 
END TABLE DATA
